* File: sky130_fd_sc_ms__fah_4.pex.spice
* Created: Wed Sep  2 12:09:39 2020
* Program "Calibre xRC"
* Version "v2018.4_34.26"
* Nominal Temperature: 27C
* Circuit Temperature: 27C
* 
.subckt PM_SKY130_FD_SC_MS__FAH_4%A 3 7 11 15 17 23 24
c44 7 0 1.40087e-19 $X=0.495 $Y=0.69
c45 3 0 1.1782e-19 $X=0.505 $Y=2.46
r46 23 25 3.67378 $w=3.28e-07 $l=2.5e-08 $layer=POLY_cond $X=0.93 $Y=1.635
+ $X2=0.955 $Y2=1.635
r47 23 24 72.64 $w=1.7e-07 $l=3.4e-07 $layer=licon1_POLY $count=2 $X=0.93
+ $Y=1.635 $X2=0.93 $Y2=1.635
r48 21 23 0.734756 $w=3.28e-07 $l=5e-09 $layer=POLY_cond $X=0.925 $Y=1.635
+ $X2=0.93 $Y2=1.635
r49 20 21 61.7195 $w=3.28e-07 $l=4.2e-07 $layer=POLY_cond $X=0.505 $Y=1.635
+ $X2=0.925 $Y2=1.635
r50 19 20 1.46951 $w=3.28e-07 $l=1e-08 $layer=POLY_cond $X=0.495 $Y=1.635
+ $X2=0.505 $Y2=1.635
r51 17 24 8.34528 $w=2.88e-07 $l=2.1e-07 $layer=LI1_cond $X=0.72 $Y=1.655
+ $X2=0.93 $Y2=1.655
r52 13 25 16.7902 $w=1.8e-07 $l=1.65e-07 $layer=POLY_cond $X=0.955 $Y=1.8
+ $X2=0.955 $Y2=1.635
r53 13 15 256.548 $w=1.8e-07 $l=6.6e-07 $layer=POLY_cond $X=0.955 $Y=1.8
+ $X2=0.955 $Y2=2.46
r54 9 21 21.0783 $w=1.5e-07 $l=1.65e-07 $layer=POLY_cond $X=0.925 $Y=1.47
+ $X2=0.925 $Y2=1.635
r55 9 11 399.957 $w=1.5e-07 $l=7.8e-07 $layer=POLY_cond $X=0.925 $Y=1.47
+ $X2=0.925 $Y2=0.69
r56 5 19 21.0783 $w=1.5e-07 $l=1.65e-07 $layer=POLY_cond $X=0.495 $Y=1.47
+ $X2=0.495 $Y2=1.635
r57 5 7 399.957 $w=1.5e-07 $l=7.8e-07 $layer=POLY_cond $X=0.495 $Y=1.47
+ $X2=0.495 $Y2=0.69
r58 1 20 16.7902 $w=1.8e-07 $l=1.65e-07 $layer=POLY_cond $X=0.505 $Y=1.8
+ $X2=0.505 $Y2=1.635
r59 1 3 256.548 $w=1.8e-07 $l=6.6e-07 $layer=POLY_cond $X=0.505 $Y=1.8 $X2=0.505
+ $Y2=2.46
.ends

.subckt PM_SKY130_FD_SC_MS__FAH_4%A_27_74# 1 2 7 11 13 15 16 19 23 25 29 31 32
+ 33 39
c71 39 0 5.85186e-20 $X=1.5 $Y=1.395
r72 37 39 15.7375 $w=3.3e-07 $l=9e-08 $layer=POLY_cond $X=1.5 $Y=1.485 $X2=1.5
+ $Y2=1.395
r73 36 37 145.28 $w=1.7e-07 $l=1.7e-07 $layer=licon1_POLY $count=1 $X=1.5
+ $Y=1.485 $X2=1.5 $Y2=1.485
r74 33 36 8.03218 $w=3.28e-07 $l=2.3e-07 $layer=LI1_cond $X=1.5 $Y=1.255 $X2=1.5
+ $Y2=1.485
r75 30 31 2.36881 $w=1.7e-07 $l=1.4e-07 $layer=LI1_cond $X=0.365 $Y=1.255
+ $X2=0.225 $Y2=1.255
r76 29 33 4.62375 $w=1.7e-07 $l=1.65e-07 $layer=LI1_cond $X=1.335 $Y=1.255
+ $X2=1.5 $Y2=1.255
r77 29 30 63.2834 $w=1.68e-07 $l=9.7e-07 $layer=LI1_cond $X=1.335 $Y=1.255
+ $X2=0.365 $Y2=1.255
r78 25 27 27.9879 $w=2.78e-07 $l=6.8e-07 $layer=LI1_cond $X=0.225 $Y=2.135
+ $X2=0.225 $Y2=2.815
r79 23 32 7.52792 $w=2.78e-07 $l=1.4e-07 $layer=LI1_cond $X=0.225 $Y=2.11
+ $X2=0.225 $Y2=1.97
r80 23 25 1.02897 $w=2.78e-07 $l=2.5e-08 $layer=LI1_cond $X=0.225 $Y=2.11
+ $X2=0.225 $Y2=2.135
r81 21 31 4.06715 $w=2.25e-07 $l=1.09087e-07 $layer=LI1_cond $X=0.17 $Y=1.34
+ $X2=0.225 $Y2=1.255
r82 21 32 41.1016 $w=1.68e-07 $l=6.3e-07 $layer=LI1_cond $X=0.17 $Y=1.34
+ $X2=0.17 $Y2=1.97
r83 17 31 4.06715 $w=2.25e-07 $l=8.5e-08 $layer=LI1_cond $X=0.225 $Y=1.17
+ $X2=0.225 $Y2=1.255
r84 17 19 26.9589 $w=2.78e-07 $l=6.55e-07 $layer=LI1_cond $X=0.225 $Y=1.17
+ $X2=0.225 $Y2=0.515
r85 13 16 18.8402 $w=1.65e-07 $l=9.40744e-08 $layer=POLY_cond $X=2.13 $Y=1.32
+ $X2=2.087 $Y2=1.395
r86 13 15 154.24 $w=1.5e-07 $l=4.8e-07 $layer=POLY_cond $X=2.13 $Y=1.32 $X2=2.13
+ $Y2=0.84
r87 9 16 18.8402 $w=1.65e-07 $l=8.74643e-08 $layer=POLY_cond $X=2.06 $Y=1.47
+ $X2=2.087 $Y2=1.395
r88 9 11 349.839 $w=1.8e-07 $l=9e-07 $layer=POLY_cond $X=2.06 $Y=1.47 $X2=2.06
+ $Y2=2.37
r89 8 39 21.2229 $w=1.5e-07 $l=1.65e-07 $layer=POLY_cond $X=1.665 $Y=1.395
+ $X2=1.5 $Y2=1.395
r90 7 16 6.66866 $w=1.5e-07 $l=1.17e-07 $layer=POLY_cond $X=1.97 $Y=1.395
+ $X2=2.087 $Y2=1.395
r91 7 8 156.394 $w=1.5e-07 $l=3.05e-07 $layer=POLY_cond $X=1.97 $Y=1.395
+ $X2=1.665 $Y2=1.395
r92 2 27 400 $w=1.7e-07 $l=9.24662e-07 $layer=licon1_PDIFF $count=1 $X=0.135
+ $Y=1.96 $X2=0.28 $Y2=2.815
r93 2 25 400 $w=1.7e-07 $l=2.36643e-07 $layer=licon1_PDIFF $count=1 $X=0.135
+ $Y=1.96 $X2=0.28 $Y2=2.135
r94 1 19 91 $w=1.7e-07 $l=2.05061e-07 $layer=licon1_NDIFF $count=2 $X=0.135
+ $Y=0.37 $X2=0.28 $Y2=0.515
.ends

.subckt PM_SKY130_FD_SC_MS__FAH_4%A_586_257# 1 2 3 10 12 17 18 19 23 26 30 33 36
+ 37 41 43 44 45 46 48 50 52 54
c167 52 0 1.99791e-19 $X=5.94 $Y=2.815
c168 50 0 1.35704e-20 $X=5.94 $Y=2.12
c169 37 0 1.58586e-19 $X=4.385 $Y=0.79
c170 26 0 1.73206e-19 $X=4.09 $Y=2.23
c171 23 0 4.11294e-20 $X=4.015 $Y=0.97
c172 12 0 1.11098e-19 $X=3.02 $Y=2.23
r173 50 56 3.40825 $w=1.7e-07 $l=8.5e-08 $layer=LI1_cond $X=5.94 $Y=2.12
+ $X2=5.94 $Y2=2.035
r174 50 52 45.3422 $w=1.68e-07 $l=6.95e-07 $layer=LI1_cond $X=5.94 $Y=2.12
+ $X2=5.94 $Y2=2.815
r175 46 48 171.257 $w=1.68e-07 $l=2.625e-06 $layer=LI1_cond $X=5.405 $Y=0.34
+ $X2=8.03 $Y2=0.34
r176 44 56 3.40825 $w=1.7e-07 $l=8.5e-08 $layer=LI1_cond $X=5.855 $Y=2.035
+ $X2=5.94 $Y2=2.035
r177 44 45 38.492 $w=1.68e-07 $l=5.9e-07 $layer=LI1_cond $X=5.855 $Y=2.035
+ $X2=5.265 $Y2=2.035
r178 43 45 6.81649 $w=1.7e-07 $l=1.20208e-07 $layer=LI1_cond $X=5.18 $Y=1.95
+ $X2=5.265 $Y2=2.035
r179 42 54 3.84343 $w=2.4e-07 $l=1.38651e-07 $layer=LI1_cond $X=5.18 $Y=0.92
+ $X2=5.25 $Y2=0.812
r180 42 43 67.1979 $w=1.68e-07 $l=1.03e-06 $layer=LI1_cond $X=5.18 $Y=0.92
+ $X2=5.18 $Y2=1.95
r181 39 54 3.84343 $w=2.4e-07 $l=1.07e-07 $layer=LI1_cond $X=5.25 $Y=0.705
+ $X2=5.25 $Y2=0.812
r182 39 41 7.80687 $w=3.08e-07 $l=2.1e-07 $layer=LI1_cond $X=5.25 $Y=0.705
+ $X2=5.25 $Y2=0.495
r183 38 46 7.59919 $w=1.7e-07 $l=1.92873e-07 $layer=LI1_cond $X=5.25 $Y=0.425
+ $X2=5.405 $Y2=0.34
r184 38 41 2.60229 $w=3.08e-07 $l=7e-08 $layer=LI1_cond $X=5.25 $Y=0.425
+ $X2=5.25 $Y2=0.495
r185 36 54 2.60907 $w=1.7e-07 $l=1.65635e-07 $layer=LI1_cond $X=5.095 $Y=0.79
+ $X2=5.25 $Y2=0.812
r186 36 37 46.3209 $w=1.68e-07 $l=7.1e-07 $layer=LI1_cond $X=5.095 $Y=0.79
+ $X2=4.385 $Y2=0.79
r187 34 60 46.8028 $w=4.45e-07 $l=1.65e-07 $layer=POLY_cond $X=4.162 $Y=0.375
+ $X2=4.162 $Y2=0.54
r188 33 34 145.28 $w=1.7e-07 $l=1.7e-07 $layer=licon1_POLY $count=1 $X=4.22
+ $Y=0.375 $X2=4.22 $Y2=0.375
r189 31 37 7.76618 $w=1.7e-07 $l=2.03101e-07 $layer=LI1_cond $X=4.22 $Y=0.705
+ $X2=4.385 $Y2=0.79
r190 31 33 11.5244 $w=3.28e-07 $l=3.3e-07 $layer=LI1_cond $X=4.22 $Y=0.705
+ $X2=4.22 $Y2=0.375
r191 29 30 60.4563 $w=1.8e-07 $l=1.5e-07 $layer=POLY_cond $X=4.06 $Y=1.365
+ $X2=4.06 $Y2=1.515
r192 26 30 277.927 $w=1.8e-07 $l=7.15e-07 $layer=POLY_cond $X=4.09 $Y=2.23
+ $X2=4.09 $Y2=1.515
r193 23 29 202.543 $w=1.5e-07 $l=3.95e-07 $layer=POLY_cond $X=4.015 $Y=0.97
+ $X2=4.015 $Y2=1.365
r194 23 60 220.489 $w=1.5e-07 $l=4.3e-07 $layer=POLY_cond $X=4.015 $Y=0.97
+ $X2=4.015 $Y2=0.54
r195 18 34 21.2463 $w=4.45e-07 $l=1.7e-07 $layer=POLY_cond $X=4.162 $Y=0.205
+ $X2=4.162 $Y2=0.375
r196 18 19 425.596 $w=1.5e-07 $l=8.3e-07 $layer=POLY_cond $X=3.94 $Y=0.205
+ $X2=3.11 $Y2=0.205
r197 17 28 202.543 $w=1.5e-07 $l=3.95e-07 $layer=POLY_cond $X=3.035 $Y=0.89
+ $X2=3.035 $Y2=1.285
r198 14 19 26.9307 $w=1.5e-07 $l=1.06066e-07 $layer=POLY_cond $X=3.035 $Y=0.28
+ $X2=3.11 $Y2=0.205
r199 14 17 312.787 $w=1.5e-07 $l=6.1e-07 $layer=POLY_cond $X=3.035 $Y=0.28
+ $X2=3.035 $Y2=0.89
r200 10 28 37.1337 $w=1.8e-07 $l=9e-08 $layer=POLY_cond $X=3.02 $Y=1.375
+ $X2=3.02 $Y2=1.285
r201 10 12 332.347 $w=1.8e-07 $l=8.55e-07 $layer=POLY_cond $X=3.02 $Y=1.375
+ $X2=3.02 $Y2=2.23
r202 3 56 400 $w=1.7e-07 $l=3.35783e-07 $layer=licon1_PDIFF $count=1 $X=5.805
+ $Y=1.84 $X2=5.94 $Y2=2.115
r203 3 52 400 $w=1.7e-07 $l=1.04031e-06 $layer=licon1_PDIFF $count=1 $X=5.805
+ $Y=1.84 $X2=5.94 $Y2=2.815
r204 2 48 182 $w=1.7e-07 $l=4.92874e-07 $layer=licon1_NDIFF $count=1 $X=7.81
+ $Y=0.735 $X2=8.03 $Y2=0.34
r205 1 41 91 $w=1.7e-07 $l=1.92614e-07 $layer=licon1_NDIFF $count=2 $X=5.1
+ $Y=0.37 $X2=5.24 $Y2=0.495
.ends

.subckt PM_SKY130_FD_SC_MS__FAH_4%B 4 7 9 10 13 18 19 23 24 26 28 30 32 33 34 38
+ 39 43 44 45 54
c148 43 0 3.01964e-20 $X=4.8 $Y=2.065
c149 38 0 4.11294e-20 $X=4.8 $Y=1.385
c150 32 0 3.09806e-19 $X=3.6 $Y=1.735
c151 26 0 1.70742e-19 $X=5.715 $Y=1.765
r152 48 55 8.97022 $w=4.65e-07 $l=7.5e-08 $layer=POLY_cond $X=4.867 $Y=1.765
+ $X2=4.867 $Y2=1.69
r153 44 45 9.21977 $w=4.78e-07 $l=3.7e-07 $layer=LI1_cond $X=4.915 $Y=2.405
+ $X2=4.915 $Y2=2.775
r154 44 57 5.60012 $w=4.78e-07 $l=1.15e-07 $layer=LI1_cond $X=4.915 $Y=2.405
+ $X2=4.915 $Y2=2.29
r155 44 51 72.64 $w=1.7e-07 $l=3.4e-07 $layer=licon1_POLY $count=2 $X=4.8
+ $Y=2.405 $X2=4.8 $Y2=2.405
r156 43 51 40.665 $w=4.65e-07 $l=3.4e-07 $layer=POLY_cond $X=4.867 $Y=2.065
+ $X2=4.867 $Y2=2.405
r157 43 48 35.8809 $w=4.65e-07 $l=3e-07 $layer=POLY_cond $X=4.867 $Y=2.065
+ $X2=4.867 $Y2=1.765
r158 42 57 10.372 $w=2.48e-07 $l=2.25e-07 $layer=LI1_cond $X=4.8 $Y=2.065
+ $X2=4.8 $Y2=2.29
r159 42 43 96.8533 $w=1.7e-07 $l=2.55e-07 $layer=licon1_POLY $count=1 $X=4.8
+ $Y=2.065 $X2=4.8 $Y2=2.065
r160 39 55 36.4789 $w=4.65e-07 $l=3.05e-07 $layer=POLY_cond $X=4.867 $Y=1.385
+ $X2=4.867 $Y2=1.69
r161 39 54 47.3569 $w=4.65e-07 $l=1.65e-07 $layer=POLY_cond $X=4.867 $Y=1.385
+ $X2=4.867 $Y2=1.22
r162 38 42 31.3464 $w=2.48e-07 $l=6.8e-07 $layer=LI1_cond $X=4.8 $Y=1.385
+ $X2=4.8 $Y2=2.065
r163 38 39 96.8533 $w=1.7e-07 $l=2.55e-07 $layer=licon1_POLY $count=1 $X=4.8
+ $Y=1.385 $X2=4.8 $Y2=1.385
r164 34 51 32.6516 $w=4.65e-07 $l=2.73e-07 $layer=POLY_cond $X=4.867 $Y=2.678
+ $X2=4.867 $Y2=2.405
r165 31 32 60.4563 $w=1.8e-07 $l=1.5e-07 $layer=POLY_cond $X=3.6 $Y=1.585
+ $X2=3.6 $Y2=1.735
r166 29 30 60.4563 $w=1.8e-07 $l=1.5e-07 $layer=POLY_cond $X=2.577 $Y=1.45
+ $X2=2.577 $Y2=1.6
r167 26 28 170.039 $w=1.8e-07 $l=6.35e-07 $layer=POLY_cond $X=5.715 $Y=1.765
+ $X2=5.715 $Y2=2.4
r168 25 55 29.5843 $w=1.5e-07 $l=2.33e-07 $layer=POLY_cond $X=5.1 $Y=1.69
+ $X2=4.867 $Y2=1.69
r169 24 26 27.2212 $w=1.5e-07 $l=1.21861e-07 $layer=POLY_cond $X=5.625 $Y=1.69
+ $X2=5.715 $Y2=1.765
r170 24 25 269.202 $w=1.5e-07 $l=5.25e-07 $layer=POLY_cond $X=5.625 $Y=1.69
+ $X2=5.1 $Y2=1.69
r171 23 54 154.24 $w=1.5e-07 $l=4.8e-07 $layer=POLY_cond $X=5.025 $Y=0.74
+ $X2=5.025 $Y2=1.22
r172 20 33 23.6879 $w=1.5e-07 $l=9e-08 $layer=POLY_cond $X=3.73 $Y=3.095
+ $X2=3.64 $Y2=3.095
r173 19 34 49.4222 $w=4.65e-07 $l=5.20224e-07 $layer=POLY_cond $X=4.635 $Y=3.095
+ $X2=4.867 $Y2=2.678
r174 19 20 464.053 $w=1.5e-07 $l=9.05e-07 $layer=POLY_cond $X=4.635 $Y=3.095
+ $X2=3.73 $Y2=3.095
r175 18 32 192.411 $w=1.8e-07 $l=4.95e-07 $layer=POLY_cond $X=3.64 $Y=2.23
+ $X2=3.64 $Y2=1.735
r176 16 33 2.7459 $w=1.8e-07 $l=7.5e-08 $layer=POLY_cond $X=3.64 $Y=3.02
+ $X2=3.64 $Y2=3.095
r177 16 18 307.081 $w=1.8e-07 $l=7.9e-07 $layer=POLY_cond $X=3.64 $Y=3.02
+ $X2=3.64 $Y2=2.23
r178 13 31 315.351 $w=1.5e-07 $l=6.15e-07 $layer=POLY_cond $X=3.545 $Y=0.97
+ $X2=3.545 $Y2=1.585
r179 9 33 23.6879 $w=1.5e-07 $l=9e-08 $layer=POLY_cond $X=3.55 $Y=3.095 $X2=3.64
+ $Y2=3.095
r180 9 10 458.926 $w=1.5e-07 $l=8.95e-07 $layer=POLY_cond $X=3.55 $Y=3.095
+ $X2=2.655 $Y2=3.095
r181 7 29 287.149 $w=1.5e-07 $l=5.6e-07 $layer=POLY_cond $X=2.605 $Y=0.89
+ $X2=2.605 $Y2=1.45
r182 4 30 244.887 $w=1.8e-07 $l=6.3e-07 $layer=POLY_cond $X=2.565 $Y=2.23
+ $X2=2.565 $Y2=1.6
r183 2 10 27.2212 $w=1.5e-07 $l=1.21861e-07 $layer=POLY_cond $X=2.565 $Y=3.02
+ $X2=2.655 $Y2=3.095
r184 2 4 307.081 $w=1.8e-07 $l=7.9e-07 $layer=POLY_cond $X=2.565 $Y=3.02
+ $X2=2.565 $Y2=2.23
.ends

.subckt PM_SKY130_FD_SC_MS__FAH_4%A_531_362# 1 2 7 12 13 15 16 17 18 20 25 26 31
+ 35 37 42 43 45 46 47 48 51 55 57 58
c205 58 0 3.01964e-20 $X=5.52 $Y=1.665
c206 55 0 1.58586e-19 $X=4.08 $Y=1.665
c207 37 0 3.83589e-19 $X=3.885 $Y=1.657
c208 26 0 9.38637e-20 $X=6.275 $Y=1.3
c209 13 0 3.0708e-19 $X=6.315 $Y=1.225
r210 57 58 9.3 $w=1.7e-07 $l=1.7e-07 $layer=mcon $count=1 $X=5.52 $Y=1.665
+ $X2=5.52 $Y2=1.665
r211 54 55 9.3 $w=1.7e-07 $l=1.7e-07 $layer=mcon $count=1 $X=4.08 $Y=1.665
+ $X2=4.08 $Y2=1.665
r212 51 68 14.4306 $w=2.28e-07 $l=2.88e-07 $layer=LI1_cond $X=3.12 $Y=1.665
+ $X2=2.832 $Y2=1.665
r213 50 51 9.3 $w=1.7e-07 $l=1.7e-07 $layer=mcon $count=1 $X=3.12 $Y=1.665
+ $X2=3.12 $Y2=1.665
r214 48 54 0.115467 $w=2.3e-07 $l=1.45e-07 $layer=MET1_cond $X=4.225 $Y=1.665
+ $X2=4.08 $Y2=1.665
r215 47 57 0.115467 $w=2.3e-07 $l=1.45e-07 $layer=MET1_cond $X=5.375 $Y=1.665
+ $X2=5.52 $Y2=1.665
r216 47 48 1.42326 $w=1.4e-07 $l=1.15e-06 $layer=MET1_cond $X=5.375 $Y=1.665
+ $X2=4.225 $Y2=1.665
r217 46 50 0.115467 $w=2.3e-07 $l=1.45e-07 $layer=MET1_cond $X=3.265 $Y=1.665
+ $X2=3.12 $Y2=1.665
r218 45 54 0.115467 $w=2.3e-07 $l=1.45e-07 $layer=MET1_cond $X=3.935 $Y=1.665
+ $X2=4.08 $Y2=1.665
r219 45 46 0.829206 $w=1.4e-07 $l=6.7e-07 $layer=MET1_cond $X=3.935 $Y=1.665
+ $X2=3.265 $Y2=1.665
r220 43 62 15.7375 $w=3.3e-07 $l=9e-08 $layer=POLY_cond $X=5.64 $Y=1.21 $X2=5.64
+ $Y2=1.3
r221 42 43 145.28 $w=1.7e-07 $l=1.7e-07 $layer=licon1_POLY $count=1 $X=5.64
+ $Y=1.21 $X2=5.64 $Y2=1.21
r222 39 58 16.0818 $w=1.98e-07 $l=2.9e-07 $layer=LI1_cond $X=5.535 $Y=1.375
+ $X2=5.535 $Y2=1.665
r223 38 42 4.24584 $w=2.83e-07 $l=1.05e-07 $layer=LI1_cond $X=5.535 $Y=1.232
+ $X2=5.64 $Y2=1.232
r224 38 39 2.81168 $w=2e-07 $l=1.43e-07 $layer=LI1_cond $X=5.535 $Y=1.232
+ $X2=5.535 $Y2=1.375
r225 37 55 10.4524 $w=2.13e-07 $l=1.95e-07 $layer=LI1_cond $X=3.885 $Y=1.657
+ $X2=4.08 $Y2=1.657
r226 33 37 6.93832 $w=2.15e-07 $l=1.43332e-07 $layer=LI1_cond $X=3.8 $Y=1.55
+ $X2=3.885 $Y2=1.657
r227 33 35 49.2567 $w=1.68e-07 $l=7.55e-07 $layer=LI1_cond $X=3.8 $Y=1.55
+ $X2=3.8 $Y2=0.795
r228 29 68 0.103554 $w=2.55e-07 $l=1.15e-07 $layer=LI1_cond $X=2.832 $Y=1.78
+ $X2=2.832 $Y2=1.665
r229 29 31 7.90892 $w=2.53e-07 $l=1.75e-07 $layer=LI1_cond $X=2.832 $Y=1.78
+ $X2=2.832 $Y2=1.955
r230 23 25 209.903 $w=1.8e-07 $l=5.4e-07 $layer=POLY_cond $X=7.485 $Y=3.075
+ $X2=7.485 $Y2=2.535
r231 22 25 211.847 $w=1.8e-07 $l=5.45e-07 $layer=POLY_cond $X=7.485 $Y=1.99
+ $X2=7.485 $Y2=2.535
r232 18 22 54.566 $w=2.12e-07 $l=4.2332e-07 $layer=POLY_cond $X=7.245 $Y=1.67
+ $X2=7.485 $Y2=1.99
r233 18 20 371.755 $w=1.5e-07 $l=7.25e-07 $layer=POLY_cond $X=7.245 $Y=1.67
+ $X2=7.245 $Y2=0.945
r234 16 23 27.2212 $w=1.5e-07 $l=1.21861e-07 $layer=POLY_cond $X=7.395 $Y=3.15
+ $X2=7.485 $Y2=3.075
r235 16 17 540.968 $w=1.5e-07 $l=1.055e-06 $layer=POLY_cond $X=7.395 $Y=3.15
+ $X2=6.34 $Y2=3.15
r236 13 26 18.8402 $w=1.65e-07 $l=9.28709e-08 $layer=POLY_cond $X=6.315 $Y=1.225
+ $X2=6.275 $Y2=1.3
r237 13 15 126.927 $w=1.5e-07 $l=3.95e-07 $layer=POLY_cond $X=6.315 $Y=1.225
+ $X2=6.315 $Y2=0.83
r238 10 17 27.2212 $w=1.5e-07 $l=1.21861e-07 $layer=POLY_cond $X=6.25 $Y=3.075
+ $X2=6.34 $Y2=3.15
r239 10 12 295.419 $w=1.8e-07 $l=7.6e-07 $layer=POLY_cond $X=6.25 $Y=3.075
+ $X2=6.25 $Y2=2.315
r240 9 26 18.8402 $w=1.65e-07 $l=8.66025e-08 $layer=POLY_cond $X=6.25 $Y=1.375
+ $X2=6.275 $Y2=1.3
r241 9 12 365.387 $w=1.8e-07 $l=9.4e-07 $layer=POLY_cond $X=6.25 $Y=1.375
+ $X2=6.25 $Y2=2.315
r242 8 62 21.2229 $w=1.5e-07 $l=1.65e-07 $layer=POLY_cond $X=5.805 $Y=1.3
+ $X2=5.64 $Y2=1.3
r243 7 26 6.66866 $w=1.5e-07 $l=1.15e-07 $layer=POLY_cond $X=6.16 $Y=1.3
+ $X2=6.275 $Y2=1.3
r244 7 8 182.032 $w=1.5e-07 $l=3.55e-07 $layer=POLY_cond $X=6.16 $Y=1.3
+ $X2=5.805 $Y2=1.3
r245 2 31 600 $w=1.7e-07 $l=2.01494e-07 $layer=licon1_PDIFF $count=1 $X=2.655
+ $Y=1.81 $X2=2.79 $Y2=1.955
r246 1 35 91 $w=1.7e-07 $l=2.41868e-07 $layer=licon1_NDIFF $count=2 $X=3.62
+ $Y=0.65 $X2=3.8 $Y2=0.795
.ends

.subckt PM_SKY130_FD_SC_MS__FAH_4%A_536_114# 1 2 10 13 15 16 20 22 23 24 25 27
+ 30 34 36 37 39 40 41 42 48 52 53 58
c196 58 0 1.03543e-19 $X=3.865 $Y=2.025
c197 53 0 4.2619e-20 $X=6.795 $Y=1.57
c198 52 0 8.74051e-20 $X=6.795 $Y=1.57
c199 42 0 3.55926e-19 $X=3.745 $Y=2.035
c200 41 0 1.8874e-19 $X=6.815 $Y=2.035
c201 39 0 1.73206e-19 $X=3.46 $Y=1.935
c202 30 0 1.35123e-19 $X=7.89 $Y=1.525
c203 23 0 5.38428e-20 $X=8.345 $Y=1.965
r204 52 55 40.6903 $w=3.3e-07 $l=1.65e-07 $layer=POLY_cond $X=6.795 $Y=1.57
+ $X2=6.795 $Y2=1.735
r205 52 54 46.2115 $w=3.3e-07 $l=1.65e-07 $layer=POLY_cond $X=6.795 $Y=1.57
+ $X2=6.795 $Y2=1.405
r206 52 53 145.28 $w=1.7e-07 $l=1.7e-07 $layer=licon1_POLY $count=1 $X=6.795
+ $Y=1.57 $X2=6.795 $Y2=1.57
r207 49 53 12.7592 $w=4.18e-07 $l=4.65e-07 $layer=LI1_cond $X=6.865 $Y=2.035
+ $X2=6.865 $Y2=1.57
r208 48 49 9.3 $w=1.7e-07 $l=1.7e-07 $layer=mcon $count=1 $X=6.96 $Y=2.035
+ $X2=6.96 $Y2=2.035
r209 45 58 15.887 $w=1.83e-07 $l=2.65e-07 $layer=LI1_cond $X=3.6 $Y=2.027
+ $X2=3.865 $Y2=2.027
r210 44 45 9.3 $w=1.7e-07 $l=1.7e-07 $layer=mcon $count=1 $X=3.6 $Y=2.035
+ $X2=3.6 $Y2=2.035
r211 42 44 0.115467 $w=2.3e-07 $l=1.45e-07 $layer=MET1_cond $X=3.745 $Y=2.035
+ $X2=3.6 $Y2=2.035
r212 41 48 0.115467 $w=2.3e-07 $l=1.45e-07 $layer=MET1_cond $X=6.815 $Y=2.035
+ $X2=6.96 $Y2=2.035
r213 41 42 3.7995 $w=1.4e-07 $l=3.07e-06 $layer=MET1_cond $X=6.815 $Y=2.035
+ $X2=3.745 $Y2=2.035
r214 40 45 3.2973 $w=1.83e-07 $l=5.5e-08 $layer=LI1_cond $X=3.545 $Y=2.027
+ $X2=3.6 $Y2=2.027
r215 39 40 6.83233 $w=1.85e-07 $l=1.27609e-07 $layer=LI1_cond $X=3.46 $Y=1.935
+ $X2=3.545 $Y2=2.027
r216 38 39 36.2086 $w=1.68e-07 $l=5.55e-07 $layer=LI1_cond $X=3.46 $Y=1.38
+ $X2=3.46 $Y2=1.935
r217 36 38 6.81649 $w=1.7e-07 $l=1.20208e-07 $layer=LI1_cond $X=3.375 $Y=1.295
+ $X2=3.46 $Y2=1.38
r218 36 37 25.4438 $w=1.68e-07 $l=3.9e-07 $layer=LI1_cond $X=3.375 $Y=1.295
+ $X2=2.985 $Y2=1.295
r219 32 37 7.76618 $w=1.7e-07 $l=2.03101e-07 $layer=LI1_cond $X=2.82 $Y=1.21
+ $X2=2.985 $Y2=1.295
r220 32 34 16.239 $w=3.28e-07 $l=4.65e-07 $layer=LI1_cond $X=2.82 $Y=1.21
+ $X2=2.82 $Y2=0.745
r221 28 30 79.4787 $w=1.5e-07 $l=1.55e-07 $layer=POLY_cond $X=7.735 $Y=1.525
+ $X2=7.89 $Y2=1.525
r222 25 27 132.55 $w=1.8e-07 $l=4.95e-07 $layer=POLY_cond $X=8.435 $Y=2.04
+ $X2=8.435 $Y2=2.535
r223 23 25 27.2212 $w=1.5e-07 $l=1.21861e-07 $layer=POLY_cond $X=8.345 $Y=1.965
+ $X2=8.435 $Y2=2.04
r224 23 24 194.851 $w=1.5e-07 $l=3.8e-07 $layer=POLY_cond $X=8.345 $Y=1.965
+ $X2=7.965 $Y2=1.965
r225 22 24 26.9307 $w=1.5e-07 $l=1.06066e-07 $layer=POLY_cond $X=7.89 $Y=1.89
+ $X2=7.965 $Y2=1.965
r226 21 30 2.83073 $w=1.5e-07 $l=7.5e-08 $layer=POLY_cond $X=7.89 $Y=1.6
+ $X2=7.89 $Y2=1.525
r227 21 22 148.702 $w=1.5e-07 $l=2.9e-07 $layer=POLY_cond $X=7.89 $Y=1.6
+ $X2=7.89 $Y2=1.89
r228 18 28 2.83073 $w=1.5e-07 $l=7.5e-08 $layer=POLY_cond $X=7.735 $Y=1.45
+ $X2=7.735 $Y2=1.525
r229 18 20 202.543 $w=1.5e-07 $l=3.95e-07 $layer=POLY_cond $X=7.735 $Y=1.45
+ $X2=7.735 $Y2=1.055
r230 17 20 410.213 $w=1.5e-07 $l=8e-07 $layer=POLY_cond $X=7.735 $Y=0.255
+ $X2=7.735 $Y2=1.055
r231 15 17 26.9307 $w=1.5e-07 $l=1.06066e-07 $layer=POLY_cond $X=7.66 $Y=0.18
+ $X2=7.735 $Y2=0.255
r232 15 16 394.83 $w=1.5e-07 $l=7.7e-07 $layer=POLY_cond $X=7.66 $Y=0.18
+ $X2=6.89 $Y2=0.18
r233 13 55 225.452 $w=1.8e-07 $l=5.8e-07 $layer=POLY_cond $X=6.845 $Y=2.315
+ $X2=6.845 $Y2=1.735
r234 10 54 235.872 $w=1.5e-07 $l=4.6e-07 $layer=POLY_cond $X=6.815 $Y=0.945
+ $X2=6.815 $Y2=1.405
r235 7 16 26.9307 $w=1.5e-07 $l=1.06066e-07 $layer=POLY_cond $X=6.815 $Y=0.255
+ $X2=6.89 $Y2=0.18
r236 7 10 353.809 $w=1.5e-07 $l=6.9e-07 $layer=POLY_cond $X=6.815 $Y=0.255
+ $X2=6.815 $Y2=0.945
r237 2 58 600 $w=1.7e-07 $l=2.74317e-07 $layer=licon1_PDIFF $count=1 $X=3.73
+ $Y=1.81 $X2=3.865 $Y2=2.025
r238 1 34 91 $w=1.7e-07 $l=2.34787e-07 $layer=licon1_NDIFF $count=2 $X=2.68
+ $Y=0.57 $X2=2.82 $Y2=0.745
.ends

.subckt PM_SKY130_FD_SC_MS__FAH_4%A_1378_125# 1 2 3 4 15 17 19 21 22 23 25 27 29
+ 31 32 33 37 39 40 42 44 47 52 53 55 59 62 63 65 66 67 68 73 74
c221 62 0 1.37274e-19 $X=7.03 $Y=1.11
c222 59 0 9.38637e-20 $X=6.4 $Y=2.065
c223 42 0 1.35123e-19 $X=8.37 $Y=1.485
c224 39 0 1.70833e-19 $X=7.875 $Y=1.565
c225 27 0 1.69806e-19 $X=6.4 $Y=1.98
c226 22 0 5.40791e-20 $X=8.88 $Y=1.485
r227 73 74 6.54147 $w=4.18e-07 $l=8.5e-08 $layer=LI1_cond $X=12.505 $Y=2.035
+ $X2=12.505 $Y2=1.95
r228 68 70 19.246 $w=1.68e-07 $l=2.95e-07 $layer=LI1_cond $X=8.63 $Y=2.695
+ $X2=8.63 $Y2=2.99
r229 62 63 9.43135 $w=1.98e-07 $l=1.65e-07 $layer=LI1_cond $X=7.03 $Y=1.115
+ $X2=6.865 $Y2=1.115
r230 57 59 7.82888 $w=1.68e-07 $l=1.2e-07 $layer=LI1_cond $X=6.28 $Y=2.065
+ $X2=6.4 $Y2=2.065
r231 53 55 14.6791 $w=1.68e-07 $l=2.25e-07 $layer=LI1_cond $X=12.465 $Y=1.095
+ $X2=12.69 $Y2=1.095
r232 52 76 2.84834 $w=4.2e-07 $l=1.25e-07 $layer=LI1_cond $X=12.505 $Y=2.61
+ $X2=12.505 $Y2=2.735
r233 51 73 3.42989 $w=4.18e-07 $l=1.25e-07 $layer=LI1_cond $X=12.505 $Y=2.16
+ $X2=12.505 $Y2=2.035
r234 51 52 12.3476 $w=4.18e-07 $l=4.5e-07 $layer=LI1_cond $X=12.505 $Y=2.16
+ $X2=12.505 $Y2=2.61
r235 49 53 6.81649 $w=1.7e-07 $l=1.20208e-07 $layer=LI1_cond $X=12.38 $Y=1.18
+ $X2=12.465 $Y2=1.095
r236 49 74 50.2353 $w=1.68e-07 $l=7.7e-07 $layer=LI1_cond $X=12.38 $Y=1.18
+ $X2=12.38 $Y2=1.95
r237 48 68 0.716491 $w=1.7e-07 $l=8.5e-08 $layer=LI1_cond $X=8.715 $Y=2.695
+ $X2=8.63 $Y2=2.695
r238 47 76 5.69669 $w=1.7e-07 $l=2.29129e-07 $layer=LI1_cond $X=12.295 $Y=2.695
+ $X2=12.505 $Y2=2.735
r239 47 48 233.561 $w=1.68e-07 $l=3.58e-06 $layer=LI1_cond $X=12.295 $Y=2.695
+ $X2=8.715 $Y2=2.695
r240 44 45 72.64 $w=1.7e-07 $l=3.4e-07 $layer=licon1_POLY $count=2 $X=8.71
+ $Y=1.485 $X2=8.71 $Y2=1.485
r241 42 67 8.46218 $w=3.28e-07 $l=1.65e-07 $layer=LI1_cond $X=8.37 $Y=1.485
+ $X2=8.205 $Y2=1.485
r242 42 44 11.8737 $w=3.28e-07 $l=3.4e-07 $layer=LI1_cond $X=8.37 $Y=1.485
+ $X2=8.71 $Y2=1.485
r243 41 66 3.58051 $w=2.6e-07 $l=1.25499e-07 $layer=LI1_cond $X=7.875 $Y=2.99
+ $X2=7.79 $Y2=2.9
r244 40 70 0.716491 $w=1.7e-07 $l=8.5e-08 $layer=LI1_cond $X=8.545 $Y=2.99
+ $X2=8.63 $Y2=2.99
r245 40 41 43.7112 $w=1.68e-07 $l=6.7e-07 $layer=LI1_cond $X=8.545 $Y=2.99
+ $X2=7.875 $Y2=2.99
r246 39 67 21.5294 $w=1.68e-07 $l=3.3e-07 $layer=LI1_cond $X=7.875 $Y=1.565
+ $X2=8.205 $Y2=1.565
r247 37 66 2.90867 $w=1.7e-07 $l=1.75e-07 $layer=LI1_cond $X=7.79 $Y=2.725
+ $X2=7.79 $Y2=2.9
r248 36 39 6.81649 $w=1.7e-07 $l=1.20208e-07 $layer=LI1_cond $X=7.79 $Y=1.65
+ $X2=7.875 $Y2=1.565
r249 36 37 70.1337 $w=1.68e-07 $l=1.075e-06 $layer=LI1_cond $X=7.79 $Y=1.65
+ $X2=7.79 $Y2=2.725
r250 33 65 8.81775 $w=3.48e-07 $l=1.75e-07 $layer=LI1_cond $X=7.165 $Y=2.9
+ $X2=6.99 $Y2=2.9
r251 33 35 1.31708 $w=3.48e-07 $l=4e-08 $layer=LI1_cond $X=7.165 $Y=2.9
+ $X2=7.205 $Y2=2.9
r252 32 66 3.58051 $w=2.6e-07 $l=8.5e-08 $layer=LI1_cond $X=7.705 $Y=2.9
+ $X2=7.79 $Y2=2.9
r253 32 35 16.4635 $w=3.48e-07 $l=5e-07 $layer=LI1_cond $X=7.705 $Y=2.9
+ $X2=7.205 $Y2=2.9
r254 31 63 24.7914 $w=1.68e-07 $l=3.8e-07 $layer=LI1_cond $X=6.485 $Y=1.13
+ $X2=6.865 $Y2=1.13
r255 29 65 40.7754 $w=1.68e-07 $l=6.25e-07 $layer=LI1_cond $X=6.365 $Y=2.99
+ $X2=6.99 $Y2=2.99
r256 27 59 0.716491 $w=1.7e-07 $l=8.5e-08 $layer=LI1_cond $X=6.4 $Y=1.98 $X2=6.4
+ $Y2=2.065
r257 26 31 6.81649 $w=1.7e-07 $l=1.20208e-07 $layer=LI1_cond $X=6.4 $Y=1.215
+ $X2=6.485 $Y2=1.13
r258 26 27 49.9091 $w=1.68e-07 $l=7.65e-07 $layer=LI1_cond $X=6.4 $Y=1.215
+ $X2=6.4 $Y2=1.98
r259 25 29 6.81649 $w=1.7e-07 $l=1.20208e-07 $layer=LI1_cond $X=6.28 $Y=2.905
+ $X2=6.365 $Y2=2.99
r260 24 57 0.716491 $w=1.7e-07 $l=8.5e-08 $layer=LI1_cond $X=6.28 $Y=2.15
+ $X2=6.28 $Y2=2.065
r261 24 25 49.2567 $w=1.68e-07 $l=7.55e-07 $layer=LI1_cond $X=6.28 $Y=2.15
+ $X2=6.28 $Y2=2.905
r262 22 45 29.7264 $w=3.3e-07 $l=1.7e-07 $layer=POLY_cond $X=8.88 $Y=1.485
+ $X2=8.71 $Y2=1.485
r263 22 23 15.9654 $w=2.4e-07 $l=9e-08 $layer=POLY_cond $X=8.88 $Y=1.485
+ $X2=8.97 $Y2=1.485
r264 19 21 128.533 $w=1.5e-07 $l=4e-07 $layer=POLY_cond $X=9.425 $Y=1.32
+ $X2=9.425 $Y2=0.92
r265 18 23 15.9654 $w=2.4e-07 $l=1.27279e-07 $layer=POLY_cond $X=9.06 $Y=1.395
+ $X2=8.97 $Y2=1.485
r266 17 19 26.9307 $w=1.5e-07 $l=1.06066e-07 $layer=POLY_cond $X=9.35 $Y=1.395
+ $X2=9.425 $Y2=1.32
r267 17 18 148.702 $w=1.5e-07 $l=2.9e-07 $layer=POLY_cond $X=9.35 $Y=1.395
+ $X2=9.06 $Y2=1.395
r268 13 23 9.46703 $w=1.8e-07 $l=1.65e-07 $layer=POLY_cond $X=8.97 $Y=1.65
+ $X2=8.97 $Y2=1.485
r269 13 15 268.21 $w=1.8e-07 $l=6.9e-07 $layer=POLY_cond $X=8.97 $Y=1.65
+ $X2=8.97 $Y2=2.34
r270 4 76 400 $w=1.7e-07 $l=9.44722e-07 $layer=licon1_PDIFF $count=1 $X=12.405
+ $Y=1.84 $X2=12.55 $Y2=2.715
r271 4 73 400 $w=1.7e-07 $l=2.57488e-07 $layer=licon1_PDIFF $count=1 $X=12.405
+ $Y=1.84 $X2=12.55 $Y2=2.035
r272 3 35 600 $w=1.7e-07 $l=1.04129e-06 $layer=licon1_PDIFF $count=1 $X=6.935
+ $Y=1.895 $X2=7.205 $Y2=2.81
r273 2 55 182 $w=1.7e-07 $l=5.6285e-07 $layer=licon1_NDIFF $count=1 $X=12.545
+ $Y=0.6 $X2=12.69 $Y2=1.095
r274 1 62 182 $w=1.7e-07 $l=5.50568e-07 $layer=licon1_NDIFF $count=1 $X=6.89
+ $Y=0.625 $X2=7.03 $Y2=1.11
.ends

.subckt PM_SKY130_FD_SC_MS__FAH_4%A_1268_379# 1 2 9 13 15 17 18 20 23 27 29 31
+ 32 34 35 38 39 42 43 44 46 47 48 50 53 56 61 77
c174 38 0 8.74051e-20 $X=7.45 $Y=2.32
c175 35 0 1.8874e-19 $X=7.365 $Y=2.405
r176 77 78 62.6163 $w=3.31e-07 $l=4.3e-07 $layer=POLY_cond $X=11.405 $Y=1.517
+ $X2=11.835 $Y2=1.517
r177 76 77 8.00906 $w=3.31e-07 $l=5.5e-08 $layer=POLY_cond $X=11.35 $Y=1.517
+ $X2=11.405 $Y2=1.517
r178 67 68 96.8533 $w=1.7e-07 $l=2.55e-07 $layer=licon1_POLY $count=1 $X=9.905
+ $Y=1.515 $X2=9.905 $Y2=1.515
r179 64 65 8.82039 $w=3.18e-07 $l=1.75e-07 $layer=LI1_cond $X=7.525 $Y=1.11
+ $X2=7.525 $Y2=1.285
r180 61 64 3.24125 $w=3.18e-07 $l=9e-08 $layer=LI1_cond $X=7.525 $Y=1.02
+ $X2=7.525 $Y2=1.11
r181 56 59 5.53173 $w=2.48e-07 $l=1.2e-07 $layer=LI1_cond $X=6.66 $Y=2.405
+ $X2=6.66 $Y2=2.525
r182 54 74 39.3172 $w=3.31e-07 $l=2.7e-07 $layer=POLY_cond $X=10.585 $Y=1.517
+ $X2=10.855 $Y2=1.517
r183 54 72 23.2991 $w=3.31e-07 $l=1.6e-07 $layer=POLY_cond $X=10.585 $Y=1.517
+ $X2=10.425 $Y2=1.517
r184 53 54 96.8533 $w=1.7e-07 $l=2.55e-07 $layer=licon1_POLY $count=1 $X=10.585
+ $Y=1.515 $X2=10.585 $Y2=1.515
r185 51 67 2.6405 $w=3.3e-07 $l=8.5e-08 $layer=LI1_cond $X=9.95 $Y=1.515
+ $X2=9.865 $Y2=1.515
r186 51 53 22.1758 $w=3.28e-07 $l=6.35e-07 $layer=LI1_cond $X=9.95 $Y=1.515
+ $X2=10.585 $Y2=1.515
r187 50 67 5.12568 $w=1.7e-07 $l=1.65e-07 $layer=LI1_cond $X=9.865 $Y=1.35
+ $X2=9.865 $Y2=1.515
r188 49 50 11.0909 $w=1.68e-07 $l=1.7e-07 $layer=LI1_cond $X=9.865 $Y=1.18
+ $X2=9.865 $Y2=1.35
r189 47 49 6.81649 $w=1.7e-07 $l=1.20208e-07 $layer=LI1_cond $X=9.78 $Y=1.095
+ $X2=9.865 $Y2=1.18
r190 47 48 14.6791 $w=1.68e-07 $l=2.25e-07 $layer=LI1_cond $X=9.78 $Y=1.095
+ $X2=9.555 $Y2=1.095
r191 46 48 6.81649 $w=1.7e-07 $l=1.20208e-07 $layer=LI1_cond $X=9.47 $Y=1.01
+ $X2=9.555 $Y2=1.095
r192 45 46 15.984 $w=1.68e-07 $l=2.45e-07 $layer=LI1_cond $X=9.47 $Y=0.765
+ $X2=9.47 $Y2=1.01
r193 43 45 6.81649 $w=1.7e-07 $l=1.20208e-07 $layer=LI1_cond $X=9.385 $Y=0.68
+ $X2=9.47 $Y2=0.765
r194 43 44 33.2727 $w=1.68e-07 $l=5.1e-07 $layer=LI1_cond $X=9.385 $Y=0.68
+ $X2=8.875 $Y2=0.68
r195 41 44 6.81649 $w=1.7e-07 $l=1.20208e-07 $layer=LI1_cond $X=8.79 $Y=0.765
+ $X2=8.875 $Y2=0.68
r196 41 42 11.0909 $w=1.68e-07 $l=1.7e-07 $layer=LI1_cond $X=8.79 $Y=0.765
+ $X2=8.79 $Y2=0.935
r197 40 61 4.44149 $w=1.7e-07 $l=1.6e-07 $layer=LI1_cond $X=7.685 $Y=1.02
+ $X2=7.525 $Y2=1.02
r198 39 42 6.81649 $w=1.7e-07 $l=1.20208e-07 $layer=LI1_cond $X=8.705 $Y=1.02
+ $X2=8.79 $Y2=0.935
r199 39 40 66.5455 $w=1.68e-07 $l=1.02e-06 $layer=LI1_cond $X=8.705 $Y=1.02
+ $X2=7.685 $Y2=1.02
r200 38 65 67.5241 $w=1.68e-07 $l=1.035e-06 $layer=LI1_cond $X=7.45 $Y=2.32
+ $X2=7.45 $Y2=1.285
r201 36 56 2.99516 $w=1.7e-07 $l=1.25e-07 $layer=LI1_cond $X=6.785 $Y=2.405
+ $X2=6.66 $Y2=2.405
r202 35 38 6.81649 $w=1.7e-07 $l=1.20208e-07 $layer=LI1_cond $X=7.365 $Y=2.405
+ $X2=7.45 $Y2=2.32
r203 35 36 37.8396 $w=1.68e-07 $l=5.8e-07 $layer=LI1_cond $X=7.365 $Y=2.405
+ $X2=6.785 $Y2=2.405
r204 32 78 21.295 $w=1.5e-07 $l=1.67e-07 $layer=POLY_cond $X=11.835 $Y=1.35
+ $X2=11.835 $Y2=1.517
r205 32 34 154.24 $w=1.5e-07 $l=4.8e-07 $layer=POLY_cond $X=11.835 $Y=1.35
+ $X2=11.835 $Y2=0.87
r206 29 77 21.295 $w=1.5e-07 $l=1.67e-07 $layer=POLY_cond $X=11.405 $Y=1.35
+ $X2=11.405 $Y2=1.517
r207 29 31 154.24 $w=1.5e-07 $l=4.8e-07 $layer=POLY_cond $X=11.405 $Y=1.35
+ $X2=11.405 $Y2=0.87
r208 25 76 17.0024 $w=1.8e-07 $l=1.68e-07 $layer=POLY_cond $X=11.35 $Y=1.685
+ $X2=11.35 $Y2=1.517
r209 25 27 277.927 $w=1.8e-07 $l=7.15e-07 $layer=POLY_cond $X=11.35 $Y=1.685
+ $X2=11.35 $Y2=2.4
r210 21 76 65.5287 $w=3.31e-07 $l=4.5e-07 $layer=POLY_cond $X=10.9 $Y=1.517
+ $X2=11.35 $Y2=1.517
r211 21 74 6.55287 $w=3.31e-07 $l=4.5e-08 $layer=POLY_cond $X=10.9 $Y=1.517
+ $X2=10.855 $Y2=1.517
r212 21 23 279.871 $w=1.8e-07 $l=7.2e-07 $layer=POLY_cond $X=10.9 $Y=1.68
+ $X2=10.9 $Y2=2.4
r213 18 74 21.295 $w=1.5e-07 $l=1.67e-07 $layer=POLY_cond $X=10.855 $Y=1.35
+ $X2=10.855 $Y2=1.517
r214 18 20 154.24 $w=1.5e-07 $l=4.8e-07 $layer=POLY_cond $X=10.855 $Y=1.35
+ $X2=10.855 $Y2=0.87
r215 15 72 21.295 $w=1.5e-07 $l=1.67e-07 $layer=POLY_cond $X=10.425 $Y=1.35
+ $X2=10.425 $Y2=1.517
r216 15 17 154.24 $w=1.5e-07 $l=4.8e-07 $layer=POLY_cond $X=10.425 $Y=1.35
+ $X2=10.425 $Y2=0.87
r217 11 72 21.1148 $w=3.31e-07 $l=1.45e-07 $layer=POLY_cond $X=10.28 $Y=1.517
+ $X2=10.425 $Y2=1.517
r218 11 68 54.6073 $w=3.31e-07 $l=3.75e-07 $layer=POLY_cond $X=10.28 $Y=1.517
+ $X2=9.905 $Y2=1.517
r219 11 13 279.871 $w=1.8e-07 $l=7.2e-07 $layer=POLY_cond $X=10.28 $Y=1.68
+ $X2=10.28 $Y2=2.4
r220 7 68 10.9215 $w=3.31e-07 $l=7.5e-08 $layer=POLY_cond $X=9.83 $Y=1.517
+ $X2=9.905 $Y2=1.517
r221 7 9 279.871 $w=1.8e-07 $l=7.2e-07 $layer=POLY_cond $X=9.83 $Y=1.68 $X2=9.83
+ $Y2=2.4
r222 2 59 600 $w=1.7e-07 $l=7.57166e-07 $layer=licon1_PDIFF $count=1 $X=6.34
+ $Y=1.895 $X2=6.62 $Y2=2.525
r223 1 64 182 $w=1.7e-07 $l=5.7639e-07 $layer=licon1_NDIFF $count=1 $X=7.32
+ $Y=0.625 $X2=7.52 $Y2=1.11
.ends

.subckt PM_SKY130_FD_SC_MS__FAH_4%CI 3 7 8 11 12 13
r38 11 14 40.6903 $w=3.3e-07 $l=1.65e-07 $layer=POLY_cond $X=12.815 $Y=1.515
+ $X2=12.815 $Y2=1.68
r39 11 13 46.2115 $w=3.3e-07 $l=1.65e-07 $layer=POLY_cond $X=12.815 $Y=1.515
+ $X2=12.815 $Y2=1.35
r40 11 12 145.28 $w=1.7e-07 $l=1.7e-07 $layer=licon1_POLY $count=1 $X=12.815
+ $Y=1.515 $X2=12.815 $Y2=1.515
r41 8 12 5.01062 $w=3.43e-07 $l=1.5e-07 $layer=LI1_cond $X=12.807 $Y=1.665
+ $X2=12.807 $Y2=1.515
r42 7 13 138.173 $w=1.5e-07 $l=4.3e-07 $layer=POLY_cond $X=12.905 $Y=0.92
+ $X2=12.905 $Y2=1.35
r43 3 14 256.548 $w=1.8e-07 $l=6.6e-07 $layer=POLY_cond $X=12.775 $Y=2.34
+ $X2=12.775 $Y2=1.68
.ends

.subckt PM_SKY130_FD_SC_MS__FAH_4%A_1278_102# 1 2 9 11 13 16 18 20 23 25 27 28
+ 30 33 35 38 39 41 42 44 45 46 48 49 52 53 58 64 66 70 79
c216 66 0 5.40791e-20 $X=8.21 $Y=2.26
c217 18 0 1.44963e-19 $X=13.935 $Y=1.35
r218 79 80 2.19757 $w=3.29e-07 $l=1.5e-08 $layer=POLY_cond $X=14.795 $Y=1.515
+ $X2=14.81 $Y2=1.515
r219 78 79 62.997 $w=3.29e-07 $l=4.3e-07 $layer=POLY_cond $X=14.365 $Y=1.515
+ $X2=14.795 $Y2=1.515