* File: sky130_fd_sc_ms__fah_1.pex.spice
* Created: Wed Sep  2 12:09:25 2020
* Program "Calibre xRC"
* Version "v2018.4_34.26"
* Nominal Temperature: 27C
* Circuit Temperature: 27C
* 
.subckt PM_SKY130_FD_SC_MS__FAH_1%CI 3 6 8 11 12 13
c42 12 0 1.05236e-19 $X=1.17 $Y=1.575
c43 11 0 4.00034e-20 $X=1.17 $Y=1.575
r44 11 14 40.6903 $w=3.3e-07 $l=1.65e-07 $layer=POLY_cond $X=1.17 $Y=1.575
+ $X2=1.17 $Y2=1.74
r45 11 13 46.2115 $w=3.3e-07 $l=1.65e-07 $layer=POLY_cond $X=1.17 $Y=1.575
+ $X2=1.17 $Y2=1.41
r46 11 12 145.28 $w=1.7e-07 $l=1.7e-07 $layer=licon1_POLY $count=1 $X=1.17
+ $Y=1.575 $X2=1.17 $Y2=1.575
r47 8 12 3.14303 $w=3.28e-07 $l=9e-08 $layer=LI1_cond $X=1.17 $Y=1.665 $X2=1.17
+ $Y2=1.575
r48 6 14 256.548 $w=1.8e-07 $l=6.6e-07 $layer=POLY_cond $X=1.185 $Y=2.4
+ $X2=1.185 $Y2=1.74
r49 3 13 138.173 $w=1.5e-07 $l=4.3e-07 $layer=POLY_cond $X=1.08 $Y=0.98 $X2=1.08
+ $Y2=1.41
.ends

.subckt PM_SKY130_FD_SC_MS__FAH_1%A_83_21# 1 2 10 11 13 15 16 18 24 29 30 31 32
+ 33 34 36 37 38 39 42 43 44 45 47 52 56 60 66
c186 52 0 2.42155e-20 $X=4.37 $Y=2.255
c187 45 0 2.4784e-20 $X=5.885 $Y=0.68
c188 33 0 3.05634e-20 $X=3.155 $Y=2.28
c189 30 0 3.87212e-19 $X=2.01 $Y=1.86
c190 24 0 1.37092e-19 $X=1.735 $Y=1.31
r191 60 63 3.31764 $w=3.28e-07 $l=9.5e-08 $layer=LI1_cond $X=6.05 $Y=0.68
+ $X2=6.05 $Y2=0.775
r192 56 58 10.4385 $w=1.68e-07 $l=1.6e-07 $layer=LI1_cond $X=4.96 $Y=0.68
+ $X2=4.96 $Y2=0.84
r193 52 54 4.01609 $w=3.28e-07 $l=1.15e-07 $layer=LI1_cond $X=4.37 $Y=2.255
+ $X2=4.37 $Y2=2.37
r194 47 49 5.87166 $w=1.68e-07 $l=9e-08 $layer=LI1_cond $X=3.24 $Y=2.28 $X2=3.24
+ $Y2=2.37
r195 46 56 0.716491 $w=1.7e-07 $l=8.5e-08 $layer=LI1_cond $X=5.045 $Y=0.68
+ $X2=4.96 $Y2=0.68
r196 45 60 4.62375 $w=1.7e-07 $l=1.65e-07 $layer=LI1_cond $X=5.885 $Y=0.68
+ $X2=6.05 $Y2=0.68
r197 45 46 54.8021 $w=1.68e-07 $l=8.4e-07 $layer=LI1_cond $X=5.885 $Y=0.68
+ $X2=5.045 $Y2=0.68
r198 43 58 0.716491 $w=1.7e-07 $l=8.5e-08 $layer=LI1_cond $X=4.875 $Y=0.84
+ $X2=4.96 $Y2=0.84
r199 43 44 38.492 $w=1.68e-07 $l=5.9e-07 $layer=LI1_cond $X=4.875 $Y=0.84
+ $X2=4.285 $Y2=0.84
r200 42 44 6.81649 $w=1.7e-07 $l=1.20208e-07 $layer=LI1_cond $X=4.2 $Y=0.755
+ $X2=4.285 $Y2=0.84
r201 41 42 21.5294 $w=1.68e-07 $l=3.3e-07 $layer=LI1_cond $X=4.2 $Y=0.425
+ $X2=4.2 $Y2=0.755
r202 40 49 0.716491 $w=1.7e-07 $l=8.5e-08 $layer=LI1_cond $X=3.325 $Y=2.37
+ $X2=3.24 $Y2=2.37
r203 39 54 4.62375 $w=1.7e-07 $l=1.65e-07 $layer=LI1_cond $X=4.205 $Y=2.37
+ $X2=4.37 $Y2=2.37
r204 39 40 57.4118 $w=1.68e-07 $l=8.8e-07 $layer=LI1_cond $X=4.205 $Y=2.37
+ $X2=3.325 $Y2=2.37
r205 37 41 6.81649 $w=1.7e-07 $l=1.20208e-07 $layer=LI1_cond $X=4.115 $Y=0.34
+ $X2=4.2 $Y2=0.425
r206 37 38 88.0749 $w=1.68e-07 $l=1.35e-06 $layer=LI1_cond $X=4.115 $Y=0.34
+ $X2=2.765 $Y2=0.34
r207 35 38 6.81649 $w=1.7e-07 $l=1.20208e-07 $layer=LI1_cond $X=2.68 $Y=0.425
+ $X2=2.765 $Y2=0.34
r208 35 36 30.9893 $w=1.68e-07 $l=4.75e-07 $layer=LI1_cond $X=2.68 $Y=0.425
+ $X2=2.68 $Y2=0.9
r209 33 47 0.716491 $w=1.7e-07 $l=8.5e-08 $layer=LI1_cond $X=3.155 $Y=2.28
+ $X2=3.24 $Y2=2.28
r210 33 34 63.9358 $w=1.68e-07 $l=9.8e-07 $layer=LI1_cond $X=3.155 $Y=2.28
+ $X2=2.175 $Y2=2.28
r211 31 36 6.81649 $w=1.7e-07 $l=1.20208e-07 $layer=LI1_cond $X=2.595 $Y=0.985
+ $X2=2.68 $Y2=0.9
r212 31 32 27.4011 $w=1.68e-07 $l=4.2e-07 $layer=LI1_cond $X=2.595 $Y=0.985
+ $X2=2.175 $Y2=0.985
r213 30 66 46.971 $w=5.15e-07 $l=1.65e-07 $layer=POLY_cond $X=1.917 $Y=1.86
+ $X2=1.917 $Y2=1.695
r214 29 30 72.64 $w=1.7e-07 $l=3.4e-07 $layer=licon1_POLY $count=2 $X=2.01
+ $Y=1.86 $X2=2.01 $Y2=1.86
r215 27 34 7.76618 $w=1.7e-07 $l=2.03101e-07 $layer=LI1_cond $X=2.01 $Y=2.195
+ $X2=2.175 $Y2=2.28
r216 27 29 11.699 $w=3.28e-07 $l=3.35e-07 $layer=LI1_cond $X=2.01 $Y=2.195
+ $X2=2.01 $Y2=1.86
r217 26 32 7.76618 $w=1.7e-07 $l=2.03101e-07 $layer=LI1_cond $X=2.01 $Y=1.07
+ $X2=2.175 $Y2=0.985
r218 26 29 27.5888 $w=3.28e-07 $l=7.9e-07 $layer=LI1_cond $X=2.01 $Y=1.07
+ $X2=2.01 $Y2=1.86
r219 22 24 58.9681 $w=1.5e-07 $l=1.15e-07 $layer=POLY_cond $X=1.62 $Y=1.31
+ $X2=1.735 $Y2=1.31
r220 19 24 2.83073 $w=1.5e-07 $l=7.5e-08 $layer=POLY_cond $X=1.735 $Y=1.385
+ $X2=1.735 $Y2=1.31
r221 19 66 158.957 $w=1.5e-07 $l=3.1e-07 $layer=POLY_cond $X=1.735 $Y=1.385
+ $X2=1.735 $Y2=1.695
r222 18 22 2.83073 $w=1.5e-07 $l=7.5e-08 $layer=POLY_cond $X=1.62 $Y=1.235
+ $X2=1.62 $Y2=1.31
r223 17 18 502.511 $w=1.5e-07 $l=9.8e-07 $layer=POLY_cond $X=1.62 $Y=0.255
+ $X2=1.62 $Y2=1.235
r224 15 17 26.9307 $w=1.5e-07 $l=1.06066e-07 $layer=POLY_cond $X=1.545 $Y=0.18
+ $X2=1.62 $Y2=0.255
r225 15 16 502.511 $w=1.5e-07 $l=9.8e-07 $layer=POLY_cond $X=1.545 $Y=0.18
+ $X2=0.565 $Y2=0.18
r226 11 21 37.1337 $w=1.8e-07 $l=9e-08 $layer=POLY_cond $X=0.505 $Y=1.465
+ $X2=0.505 $Y2=1.375
r227 11 13 363.444 $w=1.8e-07 $l=9.35e-07 $layer=POLY_cond $X=0.505 $Y=1.465
+ $X2=0.505 $Y2=2.4
r228 10 21 228.181 $w=1.5e-07 $l=4.45e-07 $layer=POLY_cond $X=0.49 $Y=0.93
+ $X2=0.49 $Y2=1.375
r229 7 16 26.9307 $w=1.5e-07 $l=1.06066e-07 $layer=POLY_cond $X=0.49 $Y=0.255
+ $X2=0.565 $Y2=0.18
r230 7 10 346.117 $w=1.5e-07 $l=6.75e-07 $layer=POLY_cond $X=0.49 $Y=0.255
+ $X2=0.49 $Y2=0.93
r231 2 52 300 $w=1.7e-07 $l=1.90919e-07 $layer=licon1_PDIFF $count=2 $X=4.235
+ $Y=2.12 $X2=4.37 $Y2=2.255
r232 1 63 182 $w=1.7e-07 $l=2.74955e-07 $layer=licon1_NDIFF $count=1 $X=5.84
+ $Y=0.625 $X2=6.05 $Y2=0.775
.ends

.subckt PM_SKY130_FD_SC_MS__FAH_1%A_410_58# 1 2 9 11 12 13 15 17 18 19 21 23 25
+ 27 29 34 35 38 39
c137 34 0 3.59827e-20 $X=4.88 $Y=1.26
c138 9 0 3.12094e-19 $X=2.125 $Y=0.79
r139 38 39 8.48848 $w=3.48e-07 $l=1.65e-07 $layer=LI1_cond $X=6.495 $Y=2.465
+ $X2=6.33 $Y2=2.465
r140 33 35 2.96841 $w=3.28e-07 $l=8.5e-08 $layer=LI1_cond $X=5.045 $Y=1.26
+ $X2=5.13 $Y2=1.26
r141 33 34 8.46218 $w=3.28e-07 $l=1.65e-07 $layer=LI1_cond $X=5.045 $Y=1.26
+ $X2=4.88 $Y2=1.26
r142 30 41 12.5376 $w=3.46e-07 $l=9e-08 $layer=POLY_cond $X=2.69 $Y=1.47
+ $X2=2.69 $Y2=1.38
r143 29 30 145.28 $w=1.7e-07 $l=1.7e-07 $layer=licon1_POLY $count=1 $X=2.665
+ $Y=1.47 $X2=2.665 $Y2=1.47
r144 27 39 72.7433 $w=1.68e-07 $l=1.115e-06 $layer=LI1_cond $X=5.215 $Y=2.405
+ $X2=6.33 $Y2=2.405
r145 25 27 6.81649 $w=1.7e-07 $l=1.20208e-07 $layer=LI1_cond $X=5.13 $Y=2.32
+ $X2=5.215 $Y2=2.405
r146 24 35 4.62375 $w=1.7e-07 $l=1.65e-07 $layer=LI1_cond $X=5.13 $Y=1.425
+ $X2=5.13 $Y2=1.26
r147 24 25 58.3904 $w=1.68e-07 $l=8.95e-07 $layer=LI1_cond $X=5.13 $Y=1.425
+ $X2=5.13 $Y2=2.32
r148 23 34 61 $w=1.68e-07 $l=9.35e-07 $layer=LI1_cond $X=3.945 $Y=1.18 $X2=4.88
+ $Y2=1.18
r149 21 23 6.81649 $w=1.7e-07 $l=1.20208e-07 $layer=LI1_cond $X=3.86 $Y=1.095
+ $X2=3.945 $Y2=1.18
r150 20 21 21.5294 $w=1.68e-07 $l=3.3e-07 $layer=LI1_cond $X=3.86 $Y=0.765
+ $X2=3.86 $Y2=1.095
r151 18 20 6.81649 $w=1.7e-07 $l=1.20208e-07 $layer=LI1_cond $X=3.775 $Y=0.68
+ $X2=3.86 $Y2=0.765
r152 18 19 43.7112 $w=1.68e-07 $l=6.7e-07 $layer=LI1_cond $X=3.775 $Y=0.68
+ $X2=3.105 $Y2=0.68
r153 17 29 14.8322 $w=2.92e-07 $l=4.42674e-07 $layer=LI1_cond $X=3.02 $Y=1.24
+ $X2=2.665 $Y2=1.437
r154 16 19 6.81649 $w=1.7e-07 $l=1.20208e-07 $layer=LI1_cond $X=3.02 $Y=0.765
+ $X2=3.105 $Y2=0.68
r155 16 17 30.9893 $w=1.68e-07 $l=4.75e-07 $layer=LI1_cond $X=3.02 $Y=0.765
+ $X2=3.02 $Y2=1.24
r156 13 30 50.0541 $w=3.46e-07 $l=3.2619e-07 $layer=POLY_cond $X=2.79 $Y=1.75
+ $X2=2.69 $Y2=1.47
r157 13 15 174.056 $w=1.8e-07 $l=6.5e-07 $layer=POLY_cond $X=2.79 $Y=1.75
+ $X2=2.79 $Y2=2.4
r158 11 41 22.3532 $w=1.5e-07 $l=1.9e-07 $layer=POLY_cond $X=2.5 $Y=1.38
+ $X2=2.69 $Y2=1.38
r159 11 12 153.83 $w=1.5e-07 $l=3e-07 $layer=POLY_cond $X=2.5 $Y=1.38 $X2=2.2
+ $Y2=1.38
r160 7 12 26.9307 $w=1.5e-07 $l=1.06066e-07 $layer=POLY_cond $X=2.125 $Y=1.305
+ $X2=2.2 $Y2=1.38
r161 7 9 264.074 $w=1.5e-07 $l=5.15e-07 $layer=POLY_cond $X=2.125 $Y=1.305
+ $X2=2.125 $Y2=0.79
r162 2 38 600 $w=1.7e-07 $l=6.74129e-07 $layer=licon1_PDIFF $count=1 $X=6.36
+ $Y=1.865 $X2=6.495 $Y2=2.475
r163 1 33 182 $w=1.7e-07 $l=4.90026e-07 $layer=licon1_NDIFF $count=1 $X=4.905
+ $Y=0.835 $X2=5.045 $Y2=1.26
.ends

.subckt PM_SKY130_FD_SC_MS__FAH_1%A_231_132# 1 2 3 4 13 15 18 20 23 28 31 32 33
+ 35 39 42 43 45 48 49 51 52 54 56 57 58 62 67 68 70 71 73 79
c240 68 0 2.42155e-20 $X=4.175 $Y=1.52
c241 67 0 7.86143e-20 $X=4.175 $Y=1.52
c242 57 0 1.55643e-19 $X=1.5 $Y=1.95
c243 56 0 4.00034e-20 $X=1.41 $Y=2.115
c244 33 0 3.05363e-20 $X=3.46 $Y=2.71
c245 23 0 2.93543e-19 $X=1.505 $Y=1.155
r246 78 79 8.4794 $w=3.43e-07 $l=1.65e-07 $layer=LI1_cond $X=5.96 $Y=2.902
+ $X2=6.125 $Y2=2.902
r247 73 75 3.14303 $w=3.28e-07 $l=9e-08 $layer=LI1_cond $X=5.55 $Y=1.03 $X2=5.55
+ $Y2=1.12
r248 67 70 8.46218 $w=3.28e-07 $l=1.65e-07 $layer=LI1_cond $X=4.175 $Y=1.6
+ $X2=4.34 $Y2=1.6
r249 67 68 72.64 $w=1.7e-07 $l=3.4e-07 $layer=licon1_POLY $count=2 $X=4.175
+ $Y=1.52 $X2=4.175 $Y2=1.52
r250 62 64 18.2674 $w=1.68e-07 $l=2.8e-07 $layer=LI1_cond $X=3.545 $Y=2.71
+ $X2=3.545 $Y2=2.99
r251 58 60 5.87166 $w=1.68e-07 $l=9e-08 $layer=LI1_cond $X=2.9 $Y=2.62 $X2=2.9
+ $Y2=2.71
r252 56 57 8.48848 $w=3.48e-07 $l=1.65e-07 $layer=LI1_cond $X=1.5 $Y=2.115
+ $X2=1.5 $Y2=1.95
r253 53 54 51.2139 $w=1.68e-07 $l=7.85e-07 $layer=LI1_cond $X=6.915 $Y=2.12
+ $X2=6.915 $Y2=2.905
r254 51 53 6.81649 $w=1.7e-07 $l=1.20208e-07 $layer=LI1_cond $X=6.83 $Y=2.035
+ $X2=6.915 $Y2=2.12
r255 51 52 39.4706 $w=1.68e-07 $l=6.05e-07 $layer=LI1_cond $X=6.83 $Y=2.035
+ $X2=6.225 $Y2=2.035
r256 49 54 6.81649 $w=1.7e-07 $l=1.20208e-07 $layer=LI1_cond $X=6.83 $Y=2.99
+ $X2=6.915 $Y2=2.905
r257 49 79 45.9947 $w=1.68e-07 $l=7.05e-07 $layer=LI1_cond $X=6.83 $Y=2.99
+ $X2=6.125 $Y2=2.99
r258 48 52 6.81649 $w=1.7e-07 $l=1.20208e-07 $layer=LI1_cond $X=6.14 $Y=1.95
+ $X2=6.225 $Y2=2.035
r259 47 48 48.6043 $w=1.68e-07 $l=7.45e-07 $layer=LI1_cond $X=6.14 $Y=1.205
+ $X2=6.14 $Y2=1.95
r260 46 75 4.62375 $w=1.7e-07 $l=1.65e-07 $layer=LI1_cond $X=5.715 $Y=1.12
+ $X2=5.55 $Y2=1.12
r261 45 47 6.81649 $w=1.7e-07 $l=1.20208e-07 $layer=LI1_cond $X=6.055 $Y=1.12
+ $X2=6.14 $Y2=1.205
r262 45 46 22.1818 $w=1.68e-07 $l=3.4e-07 $layer=LI1_cond $X=6.055 $Y=1.12
+ $X2=5.715 $Y2=1.12
r263 44 71 3.6114 $w=2.57e-07 $l=8.5e-08 $layer=LI1_cond $X=4.875 $Y=2.902
+ $X2=4.79 $Y2=2.902
r264 43 78 0.233829 $w=3.43e-07 $l=7e-09 $layer=LI1_cond $X=5.953 $Y=2.902
+ $X2=5.96 $Y2=2.902
r265 43 44 36.0097 $w=3.43e-07 $l=1.078e-06 $layer=LI1_cond $X=5.953 $Y=2.902
+ $X2=4.875 $Y2=2.902
r266 42 71 2.87242 $w=1.7e-07 $l=1.72e-07 $layer=LI1_cond $X=4.79 $Y=2.73
+ $X2=4.79 $Y2=2.902
r267 41 42 62.9572 $w=1.68e-07 $l=9.65e-07 $layer=LI1_cond $X=4.79 $Y=1.765
+ $X2=4.79 $Y2=2.73
r268 39 41 6.81649 $w=1.7e-07 $l=1.20208e-07 $layer=LI1_cond $X=4.705 $Y=1.68
+ $X2=4.79 $Y2=1.765
r269 39 70 23.8128 $w=1.68e-07 $l=3.65e-07 $layer=LI1_cond $X=4.705 $Y=1.68
+ $X2=4.34 $Y2=1.68
r270 36 64 0.716491 $w=1.7e-07 $l=8.5e-08 $layer=LI1_cond $X=3.63 $Y=2.99
+ $X2=3.545 $Y2=2.99
r271 35 71 3.6114 $w=2.57e-07 $l=1.23386e-07 $layer=LI1_cond $X=4.705 $Y=2.99
+ $X2=4.79 $Y2=2.902
r272 35 36 70.1337 $w=1.68e-07 $l=1.075e-06 $layer=LI1_cond $X=4.705 $Y=2.99
+ $X2=3.63 $Y2=2.99
r273 34 60 0.716491 $w=1.7e-07 $l=8.5e-08 $layer=LI1_cond $X=2.985 $Y=2.71
+ $X2=2.9 $Y2=2.71
r274 33 62 0.716491 $w=1.7e-07 $l=8.5e-08 $layer=LI1_cond $X=3.46 $Y=2.71
+ $X2=3.545 $Y2=2.71
r275 33 34 30.9893 $w=1.68e-07 $l=4.75e-07 $layer=LI1_cond $X=3.46 $Y=2.71
+ $X2=2.985 $Y2=2.71
r276 31 58 0.716491 $w=1.7e-07 $l=8.5e-08 $layer=LI1_cond $X=2.815 $Y=2.62
+ $X2=2.9 $Y2=2.62
r277 31 32 74.3743 $w=1.68e-07 $l=1.14e-06 $layer=LI1_cond $X=2.815 $Y=2.62
+ $X2=1.675 $Y2=2.62
r278 29 57 46.3209 $w=1.68e-07 $l=7.1e-07 $layer=LI1_cond $X=1.59 $Y=1.24
+ $X2=1.59 $Y2=1.95
r279 28 32 7.93686 $w=1.7e-07 $l=2.13307e-07 $layer=LI1_cond $X=1.5 $Y=2.535
+ $X2=1.675 $Y2=2.62
r280 27 56 0.329269 $w=3.48e-07 $l=1e-08 $layer=LI1_cond $X=1.5 $Y=2.125 $X2=1.5
+ $Y2=2.115
r281 27 28 13.5 $w=3.48e-07 $l=4.1e-07 $layer=LI1_cond $X=1.5 $Y=2.125 $X2=1.5
+ $Y2=2.535
r282 23 29 6.81649 $w=1.7e-07 $l=1.20208e-07 $layer=LI1_cond $X=1.505 $Y=1.155
+ $X2=1.59 $Y2=1.24
r283 23 25 12.7219 $w=1.68e-07 $l=1.95e-07 $layer=LI1_cond $X=1.505 $Y=1.155
+ $X2=1.31 $Y2=1.155
r284 20 68 81.236 $w=4.45e-07 $l=6.5e-07 $layer=POLY_cond $X=3.525 $Y=1.462
+ $X2=4.175 $Y2=1.462
r285 20 22 17.4857 $w=4.45e-07 $l=1.21861e-07 $layer=POLY_cond $X=3.525 $Y=1.462
+ $X2=3.435 $Y2=1.537
r286 16 22 11.9456 $w=1.8e-07 $l=1.48e-07 $layer=POLY_cond $X=3.435 $Y=1.685
+ $X2=3.435 $Y2=1.537
r287 16 18 272.097 $w=1.8e-07 $l=7e-07 $layer=POLY_cond $X=3.435 $Y=1.685
+ $X2=3.435 $Y2=2.385
r288 13 22 52.5489 $w=2.66e-07 $l=4.17539e-07 $layer=POLY_cond $X=3.145 $Y=1.24
+ $X2=3.435 $Y2=1.537
r289 13 15 128.533 $w=1.5e-07 $l=4e-07 $layer=POLY_cond $X=3.145 $Y=1.24
+ $X2=3.145 $Y2=0.84
r290 4 78 300 $w=1.7e-07 $l=9.72214e-07 $layer=licon1_PDIFF $count=2 $X=5.295
+ $Y=2.12 $X2=5.96 $Y2=2.815
r291 3 56 300 $w=1.7e-07 $l=2.74317e-07 $layer=licon1_PDIFF $count=2 $X=1.275
+ $Y=1.9 $X2=1.41 $Y2=2.115
r292 2 73 182 $w=1.7e-07 $l=4.69814e-07 $layer=licon1_NDIFF $count=1 $X=5.41
+ $Y=0.625 $X2=5.55 $Y2=1.03
r293 1 25 182 $w=1.7e-07 $l=5.6723e-07 $layer=licon1_NDIFF $count=1 $X=1.155
+ $Y=0.66 $X2=1.31 $Y2=1.155
.ends

.subckt PM_SKY130_FD_SC_MS__FAH_1%A_811_379# 1 2 7 9 10 11 13 17 18 19 23 24 26
+ 28 31 33 34 36 41 42 46 49 50 53 56 57
c197 49 0 1.02214e-19 $X=8.78 $Y=2.035
c198 41 0 4.59067e-20 $X=5.785 $Y=1.54
r199 56 57 9.3 $w=1.7e-07 $l=1.7e-07 $layer=mcon $count=1 $X=8.925 $Y=2.035
+ $X2=8.925 $Y2=2.035
r200 52 53 9.3 $w=1.7e-07 $l=1.7e-07 $layer=mcon $count=1 $X=5.52 $Y=2.035
+ $X2=5.52 $Y2=2.035
r201 50 52 0.115467 $w=2.3e-07 $l=1.45e-07 $layer=MET1_cond $X=5.665 $Y=2.035
+ $X2=5.52 $Y2=2.035
r202 49 56 0.115467 $w=2.3e-07 $l=1.45e-07 $layer=MET1_cond $X=8.78 $Y=2.035
+ $X2=8.925 $Y2=2.035
r203 49 50 3.85519 $w=1.4e-07 $l=3.115e-06 $layer=MET1_cond $X=8.78 $Y=2.035
+ $X2=5.665 $Y2=2.035
r204 46 48 10.7321 $w=3.28e-07 $l=2.3e-07 $layer=LI1_cond $X=10.65 $Y=0.82
+ $X2=10.65 $Y2=1.05
r205 44 57 18.5089 $w=3.28e-07 $l=5.3e-07 $layer=LI1_cond $X=8.945 $Y=2.565
+ $X2=8.945 $Y2=2.035
r206 42 61 30.6007 $w=3.3e-07 $l=1.75e-07 $layer=POLY_cond $X=5.785 $Y=1.54
+ $X2=5.785 $Y2=1.715
r207 42 60 46.2115 $w=3.3e-07 $l=1.65e-07 $layer=POLY_cond $X=5.785 $Y=1.54
+ $X2=5.785 $Y2=1.375
r208 41 42 145.28 $w=1.7e-07 $l=1.7e-07 $layer=licon1_POLY $count=1 $X=5.785
+ $Y=1.54 $X2=5.785 $Y2=1.54
r209 38 53 16.5351 $w=2.28e-07 $l=3.3e-07 $layer=LI1_cond $X=5.52 $Y=1.705
+ $X2=5.52 $Y2=2.035
r210 37 41 9.25447 $w=3.28e-07 $l=2.65e-07 $layer=LI1_cond $X=5.52 $Y=1.54
+ $X2=5.785 $Y2=1.54
r211 37 38 2.85155 $w=2.3e-07 $l=1.65e-07 $layer=LI1_cond $X=5.52 $Y=1.54
+ $X2=5.52 $Y2=1.705
r212 36 48 98.8396 $w=1.68e-07 $l=1.515e-06 $layer=LI1_cond $X=10.73 $Y=2.565
+ $X2=10.73 $Y2=1.05
r213 34 44 7.76618 $w=1.7e-07 $l=2.03101e-07 $layer=LI1_cond $X=9.11 $Y=2.65
+ $X2=8.945 $Y2=2.565
r214 33 36 6.81649 $w=1.7e-07 $l=1.20208e-07 $layer=LI1_cond $X=10.645 $Y=2.65
+ $X2=10.73 $Y2=2.565
r215 33 34 100.144 $w=1.68e-07 $l=1.535e-06 $layer=LI1_cond $X=10.645 $Y=2.65
+ $X2=9.11 $Y2=2.65
r216 29 31 89.734 $w=1.5e-07 $l=1.75e-07 $layer=POLY_cond $X=4.655 $Y=1.625
+ $X2=4.83 $Y2=1.625
r217 26 28 132.55 $w=1.8e-07 $l=4.95e-07 $layer=POLY_cond $X=6.27 $Y=1.79
+ $X2=6.27 $Y2=2.285
r218 25 61 21.2229 $w=1.5e-07 $l=1.65e-07 $layer=POLY_cond $X=5.95 $Y=1.715
+ $X2=5.785 $Y2=1.715
r219 24 26 27.2212 $w=1.5e-07 $l=1.21861e-07 $layer=POLY_cond $X=6.18 $Y=1.715
+ $X2=6.27 $Y2=1.79
r220 24 25 117.936 $w=1.5e-07 $l=2.3e-07 $layer=POLY_cond $X=6.18 $Y=1.715
+ $X2=5.95 $Y2=1.715
r221 23 60 220.489 $w=1.5e-07 $l=4.3e-07 $layer=POLY_cond $X=5.765 $Y=0.945
+ $X2=5.765 $Y2=1.375
r222 20 23 353.809 $w=1.5e-07 $l=6.9e-07 $layer=POLY_cond $X=5.765 $Y=0.255
+ $X2=5.765 $Y2=0.945
r223 18 20 26.9307 $w=1.5e-07 $l=1.06066e-07 $layer=POLY_cond $X=5.69 $Y=0.18
+ $X2=5.765 $Y2=0.255
r224 18 19 402.521 $w=1.5e-07 $l=7.85e-07 $layer=POLY_cond $X=5.69 $Y=0.18
+ $X2=4.905 $Y2=0.18
r225 15 31 2.83073 $w=1.5e-07 $l=7.5e-08 $layer=POLY_cond $X=4.83 $Y=1.55
+ $X2=4.83 $Y2=1.625
r226 15 17 202.543 $w=1.5e-07 $l=3.95e-07 $layer=POLY_cond $X=4.83 $Y=1.55
+ $X2=4.83 $Y2=1.155
r227 14 19 26.9307 $w=1.5e-07 $l=1.06066e-07 $layer=POLY_cond $X=4.83 $Y=0.255
+ $X2=4.905 $Y2=0.18
r228 14 17 461.489 $w=1.5e-07 $l=9e-07 $layer=POLY_cond $X=4.83 $Y=0.255
+ $X2=4.83 $Y2=1.155
r229 12 29 2.83073 $w=1.5e-07 $l=7.5e-08 $layer=POLY_cond $X=4.655 $Y=1.7
+ $X2=4.655 $Y2=1.625
r230 12 13 99.9894 $w=1.5e-07 $l=1.95e-07 $layer=POLY_cond $X=4.655 $Y=1.7
+ $X2=4.655 $Y2=1.895
r231 10 13 26.9307 $w=1.5e-07 $l=1.06066e-07 $layer=POLY_cond $X=4.58 $Y=1.97
+ $X2=4.655 $Y2=1.895
r232 10 11 176.904 $w=1.5e-07 $l=3.45e-07 $layer=POLY_cond $X=4.58 $Y=1.97
+ $X2=4.235 $Y2=1.97
r233 7 11 27.2212 $w=1.5e-07 $l=1.21861e-07 $layer=POLY_cond $X=4.145 $Y=2.045
+ $X2=4.235 $Y2=1.97
r234 7 9 132.55 $w=1.8e-07 $l=4.95e-07 $layer=POLY_cond $X=4.145 $Y=2.045
+ $X2=4.145 $Y2=2.54
r235 2 57 300 $w=1.7e-07 $l=2.82754e-07 $layer=licon1_PDIFF $count=2 $X=8.76
+ $Y=1.87 $X2=8.945 $Y2=2.075
r236 1 46 182 $w=1.7e-07 $l=6.20806e-07 $layer=licon1_NDIFF $count=1 $X=10.18
+ $Y=0.47 $X2=10.65 $Y2=0.82
.ends

.subckt PM_SKY130_FD_SC_MS__FAH_1%A_1023_379# 1 2 10 13 15 16 17 19 20 21 25 28
+ 31 34 35 39 43 49 51 52 53 54 57 60 61 66 69
c197 34 0 1.45758e-19 $X=6.9 $Y=0.875
c198 21 0 2.11227e-20 $X=6.34 $Y=1.325
r199 61 70 6.56993 $w=2.28e-07 $l=1.15e-07 $layer=LI1_cond $X=11.1 $Y=1.665
+ $X2=11.1 $Y2=1.78
r200 61 69 6.56993 $w=2.28e-07 $l=1.15e-07 $layer=LI1_cond $X=11.1 $Y=1.665
+ $X2=11.1 $Y2=1.55
r201 60 61 9.3 $w=1.7e-07 $l=1.7e-07 $layer=mcon $count=1 $X=11.1 $Y=1.665
+ $X2=11.1 $Y2=1.665
r202 57 66 5.76222 $w=2.28e-07 $l=1.15e-07 $layer=LI1_cond $X=6.96 $Y=1.665
+ $X2=6.96 $Y2=1.55
r203 56 57 9.3 $w=1.7e-07 $l=1.7e-07 $layer=mcon $count=1 $X=6.96 $Y=1.665
+ $X2=6.96 $Y2=1.665
r204 54 56 0.115467 $w=2.3e-07 $l=1.45e-07 $layer=MET1_cond $X=7.105 $Y=1.665
+ $X2=6.96 $Y2=1.665
r205 53 60 0.115467 $w=2.3e-07 $l=1.45e-07 $layer=MET1_cond $X=10.955 $Y=1.665
+ $X2=11.1 $Y2=1.665
r206 53 54 4.76484 $w=1.4e-07 $l=3.85e-06 $layer=MET1_cond $X=10.955 $Y=1.665
+ $X2=7.105 $Y2=1.665
r207 51 66 8.90524 $w=2.18e-07 $l=1.7e-07 $layer=LI1_cond $X=6.955 $Y=1.38
+ $X2=6.955 $Y2=1.55
r208 49 70 13.0481 $w=1.68e-07 $l=2e-07 $layer=LI1_cond $X=11.07 $Y=1.98
+ $X2=11.07 $Y2=1.78
r209 45 69 73.3957 $w=1.68e-07 $l=1.125e-06 $layer=LI1_cond $X=11.07 $Y=0.425
+ $X2=11.07 $Y2=1.55
r210 43 45 6.81649 $w=1.7e-07 $l=1.20208e-07 $layer=LI1_cond $X=10.985 $Y=0.34
+ $X2=11.07 $Y2=0.425
r211 43 52 104.385 $w=1.68e-07 $l=1.6e-06 $layer=LI1_cond $X=10.985 $Y=0.34
+ $X2=9.385 $Y2=0.34
r212 39 52 5.72867 $w=1.93e-07 $l=9.7e-08 $layer=LI1_cond $X=9.288 $Y=0.352
+ $X2=9.385 $Y2=0.352
r213 39 41 8.41772 $w=1.93e-07 $l=1.48e-07 $layer=LI1_cond $X=9.288 $Y=0.352
+ $X2=9.14 $Y2=0.352
r214 34 35 72.64 $w=1.7e-07 $l=3.4e-07 $layer=licon1_POLY $count=2 $X=6.9
+ $Y=0.875 $X2=6.9 $Y2=0.875
r215 32 51 7.04571 $w=3.28e-07 $l=1.65e-07 $layer=LI1_cond $X=6.9 $Y=1.215
+ $X2=6.9 $Y2=1.38
r216 32 34 11.8737 $w=3.28e-07 $l=3.4e-07 $layer=LI1_cond $X=6.9 $Y=1.215
+ $X2=6.9 $Y2=0.875
r217 30 35 61.826 $w=3.5e-07 $l=3.75e-07 $layer=POLY_cond $X=6.91 $Y=1.25
+ $X2=6.91 $Y2=0.875
r218 30 31 12.4285 $w=2.65e-07 $l=8.21584e-08 $layer=POLY_cond $X=6.91 $Y=1.25
+ $X2=6.925 $Y2=1.325
r219 23 25 307.081 $w=1.8e-07 $l=7.9e-07 $layer=POLY_cond $X=7.025 $Y=3.075
+ $X2=7.025 $Y2=2.285
r220 22 31 12.4285 $w=2.65e-07 $l=1.32288e-07 $layer=POLY_cond $X=7.025 $Y=1.4
+ $X2=6.925 $Y2=1.325
r221 22 25 344.008 $w=1.8e-07 $l=8.85e-07 $layer=POLY_cond $X=7.025 $Y=1.4
+ $X2=7.025 $Y2=2.285
r222 20 31 13.6393 $w=1.5e-07 $l=1.9e-07 $layer=POLY_cond $X=6.735 $Y=1.325
+ $X2=6.925 $Y2=1.325
r223 20 21 202.543 $w=1.5e-07 $l=3.95e-07 $layer=POLY_cond $X=6.735 $Y=1.325
+ $X2=6.34 $Y2=1.325
r224 17 21 26.9307 $w=1.5e-07 $l=1.06066e-07 $layer=POLY_cond $X=6.265 $Y=1.25
+ $X2=6.34 $Y2=1.325
r225 17 19 126.927 $w=1.5e-07 $l=3.95e-07 $layer=POLY_cond $X=6.265 $Y=1.25
+ $X2=6.265 $Y2=0.855
r226 15 23 27.2212 $w=1.5e-07 $l=1.21861e-07 $layer=POLY_cond $X=6.935 $Y=3.15
+ $X2=7.025 $Y2=3.075
r227 15 16 840.936 $w=1.5e-07 $l=1.64e-06 $layer=POLY_cond $X=6.935 $Y=3.15
+ $X2=5.295 $Y2=3.15
r228 11 28 2.83073 $w=1.5e-07 $l=7.5e-08 $layer=POLY_cond $X=5.335 $Y=1.895
+ $X2=5.335 $Y2=1.97
r229 11 13 487.128 $w=1.5e-07 $l=9.5e-07 $layer=POLY_cond $X=5.335 $Y=1.895
+ $X2=5.335 $Y2=0.945
r230 8 16 27.2212 $w=1.5e-07 $l=1.21861e-07 $layer=POLY_cond $X=5.205 $Y=3.075
+ $X2=5.295 $Y2=3.15
r231 8 10 207.96 $w=1.8e-07 $l=5.35e-07 $layer=POLY_cond $X=5.205 $Y=3.075
+ $X2=5.205 $Y2=2.54
r232 7 28 66.6596 $w=1.5e-07 $l=1.3e-07 $layer=POLY_cond $X=5.205 $Y=1.97
+ $X2=5.335 $Y2=1.97
r233 7 10 192.411 $w=1.8e-07 $l=4.95e-07 $layer=POLY_cond $X=5.205 $Y=2.045
+ $X2=5.205 $Y2=2.54
r234 2 49 300 $w=1.7e-07 $l=1.96214e-07 $layer=licon1_PDIFF $count=2 $X=10.935
+ $Y=1.84 $X2=11.07 $Y2=1.98
r235 1 41 182 $w=1.7e-07 $l=3.48569e-07 $layer=licon1_NDIFF $count=1 $X=8.84
+ $Y=0.47 $X2=9.14 $Y2=0.365
.ends

.subckt PM_SKY130_FD_SC_MS__FAH_1%A_879_55# 1 2 3 12 16 18 20 21 25 27 31 36 38
+ 41 44 45 49 55 56 57 58 61 63 65 67 69 77
c187 61 0 2.52778e-19 $X=8.675 $Y=1.545
c188 27 0 3.59827e-20 $X=7.235 $Y=0.34
r189 68 77 46.2115 $w=3.3e-07 $l=1.65e-07 $layer=POLY_cond $X=10.31 $Y=1.385
+ $X2=10.475 $Y2=1.385
r190 68 74 35.8466 $w=3.3e-07 $l=2.05e-07 $layer=POLY_cond $X=10.31 $Y=1.385
+ $X2=10.105 $Y2=1.385
r191 67 69 8.46218 $w=3.28e-07 $l=1.65e-07 $layer=LI1_cond $X=10.31 $Y=1.385
+ $X2=10.31 $Y2=1.22
r192 67 68 145.28 $w=1.7e-07 $l=1.7e-07 $layer=licon1_POLY $count=1 $X=10.31
+ $Y=1.385 $X2=10.31 $Y2=1.385
r193 61 73 40.6903 $w=3.3e-07 $l=1.65e-07 $layer=POLY_cond $X=8.675 $Y=1.545
+ $X2=8.675 $Y2=1.71
r194 61 72 46.2115 $w=3.3e-07 $l=1.65e-07 $layer=POLY_cond $X=8.675 $Y=1.545
+ $X2=8.675 $Y2=1.38
r195 60 63 7.50834 $w=3.28e-07 $l=2.15e-07 $layer=LI1_cond $X=8.675 $Y=1.545
+ $X2=8.89 $Y2=1.545
r196 60 61 145.28 $w=1.7e-07 $l=1.7e-07 $layer=licon1_POLY $count=1 $X=8.675
+ $Y=1.545 $X2=8.675 $Y2=1.545
r197 56 58 53.4973 $w=1.68e-07 $l=8.2e-07 $layer=LI1_cond $X=7.415 $Y=1.95
+ $X2=7.415 $Y2=1.13
r198 55 56 6.19221 $w=3.28e-07 $l=1e-07 $layer=LI1_cond $X=7.335 $Y=2.05
+ $X2=7.335 $Y2=1.95
r199 49 52 3.68782 $w=2.48e-07 $l=8e-08 $layer=LI1_cond $X=4.58 $Y=0.34 $X2=4.58
+ $Y2=0.42
r200 47 69 28.0535 $w=1.68e-07 $l=4.3e-07 $layer=LI1_cond $X=10.23 $Y=0.79
+ $X2=10.23 $Y2=1.22
r201 46 65 5.16603 $w=1.7e-07 $l=8.5e-08 $layer=LI1_cond $X=8.975 $Y=0.705
+ $X2=8.89 $Y2=0.705
r202 45 47 6.81649 $w=1.7e-07 $l=1.20208e-07 $layer=LI1_cond $X=10.145 $Y=0.705
+ $X2=10.23 $Y2=0.79
r203 45 46 76.3316 $w=1.68e-07 $l=1.17e-06 $layer=LI1_cond $X=10.145 $Y=0.705
+ $X2=8.975 $Y2=0.705
r204 44 63 4.62375 $w=1.7e-07 $l=1.65e-07 $layer=LI1_cond $X=8.89 $Y=1.38
+ $X2=8.89 $Y2=1.545
r205 43 65 1.34256 $w=1.7e-07 $l=8.5e-08 $layer=LI1_cond $X=8.89 $Y=0.79
+ $X2=8.89 $Y2=0.705
r206 43 44 38.492 $w=1.68e-07 $l=5.9e-07 $layer=LI1_cond $X=8.89 $Y=0.79
+ $X2=8.89 $Y2=1.38
r207 42 57 3.80956 $w=1.7e-07 $l=1.65e-07 $layer=LI1_cond $X=7.565 $Y=0.705
+ $X2=7.4 $Y2=0.705
r208 41 65 5.16603 $w=1.7e-07 $l=8.5e-08 $layer=LI1_cond $X=8.805 $Y=0.705
+ $X2=8.89 $Y2=0.705
r209 41 42 80.8984 $w=1.68e-07 $l=1.24e-06 $layer=LI1_cond $X=8.805 $Y=0.705
+ $X2=7.565 $Y2=0.705
r210 38 58 7.25185 $w=3.28e-07 $l=1.65e-07 $layer=LI1_cond $X=7.4 $Y=0.965
+ $X2=7.4 $Y2=1.13
r211 37 57 2.88756 $w=3.3e-07 $l=8.5e-08 $layer=LI1_cond $X=7.4 $Y=0.79 $X2=7.4
+ $Y2=0.705
r212 37 38 6.11144 $w=3.28e-07 $l=1.75e-07 $layer=LI1_cond $X=7.4 $Y=0.79
+ $X2=7.4 $Y2=0.965
r213 34 57 2.88756 $w=3.3e-07 $l=8.5e-08 $layer=LI1_cond $X=7.4 $Y=0.62 $X2=7.4
+ $Y2=0.705
r214 34 36 3.66686 $w=3.28e-07 $l=1.05e-07 $layer=LI1_cond $X=7.4 $Y=0.62
+ $X2=7.4 $Y2=0.515
r215 33 36 3.14303 $w=3.28e-07 $l=9e-08 $layer=LI1_cond $X=7.4 $Y=0.425 $X2=7.4
+ $Y2=0.515
r216 29 55 2.26996 $w=3.28e-07 $l=6.5e-08 $layer=LI1_cond $X=7.335 $Y=2.115
+ $X2=7.335 $Y2=2.05
r217 29 31 22.525 $w=3.28e-07 $l=6.45e-07 $layer=LI1_cond $X=7.335 $Y=2.115
+ $X2=7.335 $Y2=2.76
r218 28 49 2.99516 $w=1.7e-07 $l=1.25e-07 $layer=LI1_cond $X=4.705 $Y=0.34
+ $X2=4.58 $Y2=0.34
r219 27 33 7.76618 $w=1.7e-07 $l=2.03101e-07 $layer=LI1_cond $X=7.235 $Y=0.34
+ $X2=7.4 $Y2=0.425
r220 27 28 165.059 $w=1.68e-07 $l=2.53e-06 $layer=LI1_cond $X=7.235 $Y=0.34
+ $X2=4.705 $Y2=0.34
r221 23 25 275.984 $w=1.8e-07 $l=7.1e-07 $layer=POLY_cond $X=10.845 $Y=1.55
+ $X2=10.845 $Y2=2.26
r222 21 23 27.2212 $w=1.5e-07 $l=1.21861e-07 $layer=POLY_cond $X=10.755 $Y=1.475
+ $X2=10.845 $Y2=1.55
r223 21 77 143.574 $w=1.5e-07 $l=2.8e-07 $layer=POLY_cond $X=10.755 $Y=1.475
+ $X2=10.475 $Y2=1.475
r224 18 74 21.2229 $w=1.5e-07 $l=1.65e-07 $layer=POLY_cond $X=10.105 $Y=1.22
+ $X2=10.105 $Y2=1.385
r225 18 20 138.173 $w=1.5e-07 $l=4.3e-07 $layer=POLY_cond $X=10.105 $Y=1.22
+ $X2=10.105 $Y2=0.79
r226 16 72 302.532 $w=1.5e-07 $l=5.9e-07 $layer=POLY_cond $X=8.765 $Y=0.79
+ $X2=8.765 $Y2=1.38
r227 12 73 225.452 $w=1.8e-07 $l=5.8e-07 $layer=POLY_cond $X=8.67 $Y=2.29
+ $X2=8.67 $Y2=1.71
r228 3 55 300 $w=1.7e-07 $l=2.98496e-07 $layer=licon1_PDIFF $count=2 $X=7.115
+ $Y=1.865 $X2=7.335 $Y2=2.05
r229 3 31 600 $w=1.7e-07 $l=9.98962e-07 $layer=licon1_PDIFF $count=1 $X=7.115
+ $Y=1.865 $X2=7.335 $Y2=2.76
r230 2 36 91 $w=1.7e-07 $l=2.05061e-07 $layer=licon1_NDIFF $count=2 $X=7.255
+ $Y=0.37 $X2=7.4 $Y2=0.515
r231 1 52 182 $w=1.7e-07 $l=2.05061e-07 $layer=licon1_NDIFF $count=1 $X=4.395
+ $Y=0.275 $X2=4.54 $Y2=0.42
.ends

.subckt PM_SKY130_FD_SC_MS__FAH_1%B 1 3 6 8 11 12 13 17 18 20 22 25 30 31 32 34
+ 35 42
c130 35 0 1.50564e-19 $X=9.36 $Y=1.295
c131 8 0 1.01602e-19 $X=8.055 $Y=1.635
c132 6 0 1.45758e-19 $X=7.615 $Y=0.74
r133 40 42 35.8466 $w=3.3e-07 $l=2.05e-07 $layer=POLY_cond $X=9.31 $Y=1.385
+ $X2=9.515 $Y2=1.385
r134 40 41 145.28 $w=1.7e-07 $l=1.7e-07 $layer=licon1_POLY $count=1 $X=9.31
+ $Y=1.385 $X2=9.31 $Y2=1.385
r135 37 40 24.4806 $w=3.3e-07 $l=1.4e-07 $layer=POLY_cond $X=9.17 $Y=1.385
+ $X2=9.31 $Y2=1.385
r136 35 41 3.14303 $w=3.28e-07 $l=9e-08 $layer=LI1_cond $X=9.31 $Y=1.295
+ $X2=9.31 $Y2=1.385
r137 33 34 60.4563 $w=1.8e-07 $l=1.5e-07 $layer=POLY_cond $X=11.292 $Y=1.35
+ $X2=11.292 $Y2=1.5
r138 30 34 295.419 $w=1.8e-07 $l=7.6e-07 $layer=POLY_cond $X=11.295 $Y=2.26
+ $X2=11.295 $Y2=1.5
r139 28 30 316.798 $w=1.8e-07 $l=8.15e-07 $layer=POLY_cond $X=11.295 $Y=3.075
+ $X2=11.295 $Y2=2.26
r140 25 33 287.149 $w=1.5e-07 $l=5.6e-07 $layer=POLY_cond $X=11.275 $Y=0.79
+ $X2=11.275 $Y2=1.35
r141 20 42 21.2229 $w=1.5e-07 $l=1.65e-07 $layer=POLY_cond $X=9.515 $Y=1.22
+ $X2=9.515 $Y2=1.385
r142 20 22 138.173 $w=1.5e-07 $l=4.3e-07 $layer=POLY_cond $X=9.515 $Y=1.22
+ $X2=9.515 $Y2=0.79
r143 19 32 23.6879 $w=1.5e-07 $l=9e-08 $layer=POLY_cond $X=9.26 $Y=3.15 $X2=9.17
+ $Y2=3.15
r144 18 28 27.2212 $w=1.5e-07 $l=1.21861e-07 $layer=POLY_cond $X=11.205 $Y=3.15
+ $X2=11.295 $Y2=3.075
r145 18 19 997.33 $w=1.5e-07 $l=1.945e-06 $layer=POLY_cond $X=11.205 $Y=3.15
+ $X2=9.26 $Y2=3.15
r146 15 32 2.7459 $w=1.8e-07 $l=7.5e-08 $layer=POLY_cond $X=9.17 $Y=3.075
+ $X2=9.17 $Y2=3.15
r147 15 17 305.137 $w=1.8e-07 $l=7.85e-07 $layer=POLY_cond $X=9.17 $Y=3.075
+ $X2=9.17 $Y2=2.29
r148 14 37 16.9318 $w=1.8e-07 $l=1.65e-07 $layer=POLY_cond $X=9.17 $Y=1.55
+ $X2=9.17 $Y2=1.385
r149 14 17 287.645 $w=1.8e-07 $l=7.4e-07 $layer=POLY_cond $X=9.17 $Y=1.55
+ $X2=9.17 $Y2=2.29
r150 12 32 23.6879 $w=1.5e-07 $l=9e-08 $layer=POLY_cond $X=9.08 $Y=3.15 $X2=9.17
+ $Y2=3.15
r151 12 13 448.67 $w=1.5e-07 $l=8.75e-07 $layer=POLY_cond $X=9.08 $Y=3.15
+ $X2=8.205 $Y2=3.15
r152 11 13 26.9307 $w=1.5e-07 $l=1.06066e-07 $layer=POLY_cond $X=8.13 $Y=3.075
+ $X2=8.205 $Y2=3.15
r153 10 11 699.926 $w=1.5e-07 $l=1.365e-06 $layer=POLY_cond $X=8.13 $Y=1.71
+ $X2=8.13 $Y2=3.075
r154 9 31 6.66866 $w=1.5e-07 $l=1.1e-07 $layer=POLY_cond $X=7.69 $Y=1.635
+ $X2=7.58 $Y2=1.635
r155 8 10 26.9307 $w=1.5e-07 $l=1.06066e-07 $layer=POLY_cond $X=8.055 $Y=1.635
+ $X2=8.13 $Y2=1.71
r156 8 9 187.16 $w=1.5e-07 $l=3.65e-07 $layer=POLY_cond $X=8.055 $Y=1.635
+ $X2=7.69 $Y2=1.635
r157 4 31 18.8402 $w=1.65e-07 $l=9.08295e-08 $layer=POLY_cond $X=7.615 $Y=1.56
+ $X2=7.58 $Y2=1.635
r158 4 6 420.468 $w=1.5e-07 $l=8.2e-07 $layer=POLY_cond $X=7.615 $Y=1.56
+ $X2=7.615 $Y2=0.74
r159 1 31 18.8402 $w=1.65e-07 $l=8.44097e-08 $layer=POLY_cond $X=7.56 $Y=1.71
+ $X2=7.58 $Y2=1.635
r160 1 3 170.039 $w=1.8e-07 $l=6.35e-07 $layer=POLY_cond $X=7.56 $Y=1.71
+ $X2=7.56 $Y2=2.345
.ends

.subckt PM_SKY130_FD_SC_MS__FAH_1%A_2342_48# 1 2 7 9 12 15 16 20 24 28 32 35 36
+ 37
c78 28 0 1.0013e-19 $X=12.415 $Y=1.215
r79 35 36 8.51103 $w=3.58e-07 $l=1.65e-07 $layer=LI1_cond $X=13.65 $Y=2.135
+ $X2=13.65 $Y2=1.97
r80 31 32 145.28 $w=1.7e-07 $l=1.7e-07 $layer=licon1_POLY $count=1 $X=12.415
+ $Y=1.385 $X2=12.415 $Y2=1.385
r81 28 31 5.93683 $w=3.28e-07 $l=1.7e-07 $layer=LI1_cond $X=12.415 $Y=1.215
+ $X2=12.415 $Y2=1.385
r82 26 37 3.55013 $w=2.62e-07 $l=1.28662e-07 $layer=LI1_cond $X=13.745 $Y=1.3
+ $X2=13.652 $Y2=1.215
r83 26 36 43.7112 $w=1.68e-07 $l=6.7e-07 $layer=LI1_cond $X=13.745 $Y=1.3
+ $X2=13.745 $Y2=1.97
r84 22 37 3.55013 $w=2.62e-07 $l=8.5e-08 $layer=LI1_cond $X=13.652 $Y=1.13
+ $X2=13.652 $Y2=1.215
r85 22 24 19.9649 $w=3.53e-07 $l=6.15e-07 $layer=LI1_cond $X=13.652 $Y=1.13
+ $X2=13.652 $Y2=0.515
r86 18 35 0.480185 $w=3.58e-07 $l=1.5e-08 $layer=LI1_cond $X=13.65 $Y=2.15
+ $X2=13.65 $Y2=2.135
r87 18 20 21.2882 $w=3.58e-07 $l=6.65e-07 $layer=LI1_cond $X=13.65 $Y=2.15
+ $X2=13.65 $Y2=2.815
r88 17 28 4.62375 $w=1.7e-07 $l=1.65e-07 $layer=LI1_cond $X=12.58 $Y=1.215
+ $X2=12.415 $Y2=1.215
r89 16 37 2.9446 $w=1.7e-07 $l=1.77e-07 $layer=LI1_cond $X=13.475 $Y=1.215
+ $X2=13.652 $Y2=1.215
r90 16 17 58.3904 $w=1.68e-07 $l=8.95e-07 $layer=LI1_cond $X=13.475 $Y=1.215
+ $X2=12.58 $Y2=1.215
r91 14 32 91.8022 $w=3.3e-07 $l=5.25e-07 $layer=POLY_cond $X=11.89 $Y=1.385
+ $X2=12.415 $Y2=1.385
r92 14 15 3.90195 $w=3.3e-07 $l=9e-08 $layer=POLY_cond $X=11.89 $Y=1.385
+ $X2=11.8 $Y2=1.385
r93 10 15 34.7346 $w=1.65e-07 $l=1.65e-07 $layer=POLY_cond $X=11.8 $Y=1.55
+ $X2=11.8 $Y2=1.385
r94 10 12 330.403 $w=1.8e-07 $l=8.5e-07 $layer=POLY_cond $X=11.8 $Y=1.55
+ $X2=11.8 $Y2=2.4
r95 7 15 34.7346 $w=1.65e-07 $l=1.72337e-07 $layer=POLY_cond $X=11.785 $Y=1.22
+ $X2=11.8 $Y2=1.385
r96 7 9 154.24 $w=1.5e-07 $l=4.8e-07 $layer=POLY_cond $X=11.785 $Y=1.22
+ $X2=11.785 $Y2=0.74