* File: sky130_fd_sc_ms__sdfbbp_1.pex.spice
* Created: Fri Aug 28 18:11:11 2020
* Program "Calibre xRC"
* Version "v2018.4_34.26"
* Nominal Temperature: 27C
* Circuit Temperature: 27C
* 
.subckt PM_SKY130_FD_SC_MS__SDFBBP_1%SCD 2 5 9 10 11 15 16 17 19
r31 19 21 39.5669 $w=3.75e-07 $l=1.65e-07 $layer=POLY_cond $X=0.407 $Y=1.97
+ $X2=0.407 $Y2=2.135
r32 19 20 96.8533 $w=1.7e-07 $l=2.55e-07 $layer=licon1_POLY $count=1 $X=0.385
+ $Y=1.97 $X2=0.385 $Y2=1.97
r33 15 17 45.1558 $w=3.75e-07 $l=1.65e-07 $layer=POLY_cond $X=0.407 $Y=1.29
+ $X2=0.407 $Y2=1.125
r34 15 16 96.8533 $w=1.7e-07 $l=2.55e-07 $layer=licon1_POLY $count=1 $X=0.385
+ $Y=1.29 $X2=0.385 $Y2=1.29
r35 11 20 8.27047 $w=4.23e-07 $l=3.05e-07 $layer=LI1_cond $X=0.337 $Y=1.665
+ $X2=0.337 $Y2=1.97
r36 10 11 10.033 $w=4.23e-07 $l=3.7e-07 $layer=LI1_cond $X=0.337 $Y=1.295
+ $X2=0.337 $Y2=1.665
r37 10 16 0.135582 $w=4.23e-07 $l=5e-09 $layer=LI1_cond $X=0.337 $Y=1.295
+ $X2=0.337 $Y2=1.29
r38 9 17 102.827 $w=1.5e-07 $l=3.2e-07 $layer=POLY_cond $X=0.52 $Y=0.805
+ $X2=0.52 $Y2=1.125
r39 5 21 196.298 $w=1.8e-07 $l=5.05e-07 $layer=POLY_cond $X=0.505 $Y=2.64
+ $X2=0.505 $Y2=2.135
r40 2 19 3.26277 $w=3.75e-07 $l=2.2e-08 $layer=POLY_cond $X=0.407 $Y=1.948
+ $X2=0.407 $Y2=1.97
r41 1 15 3.26277 $w=3.75e-07 $l=2.2e-08 $layer=POLY_cond $X=0.407 $Y=1.312
+ $X2=0.407 $Y2=1.29
r42 1 2 94.3237 $w=3.75e-07 $l=6.36e-07 $layer=POLY_cond $X=0.407 $Y=1.312
+ $X2=0.407 $Y2=1.948
.ends

.subckt PM_SKY130_FD_SC_MS__SDFBBP_1%D 3 7 9 15
c41 9 0 1.39381e-19 $X=1.68 $Y=1.665
r42 13 15 30.6007 $w=3.3e-07 $l=1.75e-07 $layer=POLY_cond $X=1.435 $Y=1.69
+ $X2=1.61 $Y2=1.69
r43 11 13 2.62292 $w=3.3e-07 $l=1.5e-08 $layer=POLY_cond $X=1.42 $Y=1.69
+ $X2=1.435 $Y2=1.69
r44 9 15 145.28 $w=1.7e-07 $l=1.7e-07 $layer=licon1_POLY $count=1 $X=1.61
+ $Y=1.69 $X2=1.61 $Y2=1.69
r45 5 13 16.9318 $w=1.8e-07 $l=1.65e-07 $layer=POLY_cond $X=1.435 $Y=1.855
+ $X2=1.435 $Y2=1.69
r46 5 7 305.137 $w=1.8e-07 $l=7.85e-07 $layer=POLY_cond $X=1.435 $Y=1.855
+ $X2=1.435 $Y2=2.64
r47 1 11 21.2229 $w=1.5e-07 $l=1.65e-07 $layer=POLY_cond $X=1.42 $Y=1.525
+ $X2=1.42 $Y2=1.69
r48 1 3 369.191 $w=1.5e-07 $l=7.2e-07 $layer=POLY_cond $X=1.42 $Y=1.525 $X2=1.42
+ $Y2=0.805
.ends

.subckt PM_SKY130_FD_SC_MS__SDFBBP_1%A_341_93# 1 2 9 11 13 14 15 17 22 26 30 33
+ 34 35 38
c81 15 0 6.84835e-20 $X=1.855 $Y=1.24
r82 35 38 51.8663 $w=1.68e-07 $l=7.95e-07 $layer=LI1_cond $X=2.695 $Y=1.83
+ $X2=2.695 $Y2=1.035
r83 33 36 6.39487 $w=5.03e-07 $l=2.7e-07 $layer=LI1_cond $X=2.527 $Y=1.995
+ $X2=2.527 $Y2=2.265
r84 33 35 9.54788 $w=5.03e-07 $l=1.65e-07 $layer=LI1_cond $X=2.527 $Y=1.995
+ $X2=2.527 $Y2=1.83
r85 33 34 145.28 $w=1.7e-07 $l=1.7e-07 $layer=licon1_POLY $count=1 $X=2.43
+ $Y=1.995 $X2=2.43 $Y2=1.995
r86 28 30 4.01609 $w=3.28e-07 $l=1.15e-07 $layer=LI1_cond $X=3.12 $Y=2.35
+ $X2=3.12 $Y2=2.465
r87 27 36 7.21919 $w=1.7e-07 $l=2.53e-07 $layer=LI1_cond $X=2.78 $Y=2.265
+ $X2=2.527 $Y2=2.265
r88 26 28 7.76618 $w=1.7e-07 $l=2.03101e-07 $layer=LI1_cond $X=2.955 $Y=2.265
+ $X2=3.12 $Y2=2.35
r89 26 27 11.4171 $w=1.68e-07 $l=1.75e-07 $layer=LI1_cond $X=2.955 $Y=2.265
+ $X2=2.78 $Y2=2.265
r90 20 38 6.94937 $w=2.48e-07 $l=1.25e-07 $layer=LI1_cond $X=2.735 $Y=0.91
+ $X2=2.735 $Y2=1.035
r91 20 22 4.37928 $w=2.48e-07 $l=9.5e-08 $layer=LI1_cond $X=2.735 $Y=0.91
+ $X2=2.735 $Y2=0.815
r92 19 34 35.5134 $w=4.15e-07 $l=2.65e-07 $layer=POLY_cond $X=2.165 $Y=2.037
+ $X2=2.43 $Y2=2.037
r93 17 19 49.3036 $w=2.29e-07 $l=2.41607e-07 $layer=POLY_cond $X=2.09 $Y=1.83
+ $X2=2.015 $Y2=2.037
r94 16 17 264.074 $w=1.5e-07 $l=5.15e-07 $layer=POLY_cond $X=2.09 $Y=1.315
+ $X2=2.09 $Y2=1.83
r95 14 16 26.9307 $w=1.5e-07 $l=1.06066e-07 $layer=POLY_cond $X=2.015 $Y=1.24
+ $X2=2.09 $Y2=1.315
r96 14 15 82.0426 $w=1.5e-07 $l=1.6e-07 $layer=POLY_cond $X=2.015 $Y=1.24
+ $X2=1.855 $Y2=1.24
r97 11 19 46.1198 $w=2.29e-07 $l=2.65149e-07 $layer=POLY_cond $X=1.885 $Y=2.245
+ $X2=2.015 $Y2=2.037
r98 11 13 105.772 $w=1.8e-07 $l=3.95e-07 $layer=POLY_cond $X=1.885 $Y=2.245
+ $X2=1.885 $Y2=2.64
r99 7 15 26.9307 $w=1.5e-07 $l=1.06066e-07 $layer=POLY_cond $X=1.78 $Y=1.165
+ $X2=1.855 $Y2=1.24
r100 7 9 184.596 $w=1.5e-07 $l=3.6e-07 $layer=POLY_cond $X=1.78 $Y=1.165
+ $X2=1.78 $Y2=0.805
r101 2 30 300 $w=1.7e-07 $l=2.01494e-07 $layer=licon1_PDIFF $count=2 $X=2.985
+ $Y=2.32 $X2=3.12 $Y2=2.465
r102 1 22 182 $w=1.7e-07 $l=2.81425e-07 $layer=licon1_NDIFF $count=1 $X=2.555
+ $Y=0.595 $X2=2.695 $Y2=0.815
.ends

.subckt PM_SKY130_FD_SC_MS__SDFBBP_1%SCE 4 7 9 10 14 15 16 19 21 24
c84 24 0 1.24884e-19 $X=0.97 $Y=1.93
r85 24 27 40.6903 $w=3.3e-07 $l=1.65e-07 $layer=POLY_cond $X=0.97 $Y=1.93
+ $X2=0.97 $Y2=2.095
r86 24 26 46.2115 $w=3.3e-07 $l=1.65e-07 $layer=POLY_cond $X=0.97 $Y=1.93
+ $X2=0.97 $Y2=1.765
r87 24 25 145.28 $w=1.7e-07 $l=1.7e-07 $layer=licon1_POLY $count=1 $X=0.97
+ $Y=1.93 $X2=0.97 $Y2=1.93
r88 21 25 6.60335 $w=4.78e-07 $l=2.65e-07 $layer=LI1_cond $X=1.045 $Y=1.665
+ $X2=1.045 $Y2=1.93
r89 17 19 460.621 $w=1.8e-07 $l=1.185e-06 $layer=POLY_cond $X=2.895 $Y=1.455
+ $X2=2.895 $Y2=2.64
r90 15 17 27.2212 $w=1.5e-07 $l=1.21861e-07 $layer=POLY_cond $X=2.805 $Y=1.38
+ $X2=2.895 $Y2=1.455
r91 15 16 128.191 $w=1.5e-07 $l=2.5e-07 $layer=POLY_cond $X=2.805 $Y=1.38
+ $X2=2.555 $Y2=1.38
r92 12 16 26.9307 $w=1.5e-07 $l=1.06066e-07 $layer=POLY_cond $X=2.48 $Y=1.305
+ $X2=2.555 $Y2=1.38
r93 12 14 256.383 $w=1.5e-07 $l=5e-07 $layer=POLY_cond $X=2.48 $Y=1.305 $X2=2.48
+ $Y2=0.805
r94 11 14 282.021 $w=1.5e-07 $l=5.5e-07 $layer=POLY_cond $X=2.48 $Y=0.255
+ $X2=2.48 $Y2=0.805
r95 9 11 26.9307 $w=1.5e-07 $l=1.06066e-07 $layer=POLY_cond $X=2.405 $Y=0.18
+ $X2=2.48 $Y2=0.255
r96 9 10 728.128 $w=1.5e-07 $l=1.42e-06 $layer=POLY_cond $X=2.405 $Y=0.18
+ $X2=0.985 $Y2=0.18
r97 7 27 211.847 $w=1.8e-07 $l=5.45e-07 $layer=POLY_cond $X=1.015 $Y=2.64
+ $X2=1.015 $Y2=2.095
r98 4 26 492.255 $w=1.5e-07 $l=9.6e-07 $layer=POLY_cond $X=0.91 $Y=0.805
+ $X2=0.91 $Y2=1.765
r99 1 10 26.9307 $w=1.5e-07 $l=1.06066e-07 $layer=POLY_cond $X=0.91 $Y=0.255
+ $X2=0.985 $Y2=0.18
r100 1 4 282.021 $w=1.5e-07 $l=5.5e-07 $layer=POLY_cond $X=0.91 $Y=0.255
+ $X2=0.91 $Y2=0.805
.ends

.subckt PM_SKY130_FD_SC_MS__SDFBBP_1%CLK 1 3 6 8 12
r42 12 14 46.5483 $w=3.21e-07 $l=3.1e-07 $layer=POLY_cond $X=3.595 $Y=1.505
+ $X2=3.905 $Y2=1.505
r43 12 13 145.28 $w=1.7e-07 $l=1.7e-07 $layer=licon1_POLY $count=1 $X=3.595
+ $Y=1.505 $X2=3.595 $Y2=1.505
r44 10 12 18.7695 $w=3.21e-07 $l=1.25e-07 $layer=POLY_cond $X=3.47 $Y=1.505
+ $X2=3.595 $Y2=1.505
r45 8 13 7.33373 $w=3.28e-07 $l=2.1e-07 $layer=LI1_cond $X=3.595 $Y=1.295
+ $X2=3.595 $Y2=1.505
r46 4 14 16.2883 $w=1.8e-07 $l=1.65e-07 $layer=POLY_cond $X=3.905 $Y=1.67
+ $X2=3.905 $Y2=1.505
r47 4 6 283.758 $w=1.8e-07 $l=7.3e-07 $layer=POLY_cond $X=3.905 $Y=1.67
+ $X2=3.905 $Y2=2.4
r48 1 10 20.5661 $w=1.5e-07 $l=1.65e-07 $layer=POLY_cond $X=3.47 $Y=1.34
+ $X2=3.47 $Y2=1.505
r49 1 3 154.24 $w=1.5e-07 $l=4.8e-07 $layer=POLY_cond $X=3.47 $Y=1.34 $X2=3.47
+ $Y2=0.86
.ends

.subckt PM_SKY130_FD_SC_MS__SDFBBP_1%A_1250_231# 1 2 9 12 16 18 20 22 25 26 29
+ 32 34 35 36 41 43 47 48 49 51 53
c156 53 0 2.99441e-19 $X=8.84 $Y=1.295
c157 43 0 2.56036e-20 $X=8.85 $Y=1.5
c158 29 0 1.67029e-19 $X=6.535 $Y=0.815
c159 18 0 3.40541e-20 $X=9.25 $Y=1.295
r160 46 48 8.85254 $w=2.43e-07 $l=1.65e-07 $layer=LI1_cond $X=7.985 $Y=0.777
+ $X2=8.15 $Y2=0.777
r161 46 47 8.85254 $w=2.43e-07 $l=1.65e-07 $layer=LI1_cond $X=7.985 $Y=0.777
+ $X2=7.82 $Y2=0.777
r162 44 56 40.7727 $w=3.5e-07 $l=1.65e-07 $layer=POLY_cond $X=8.84 $Y=1.5
+ $X2=8.84 $Y2=1.665
r163 44 53 33.7982 $w=3.5e-07 $l=2.05e-07 $layer=POLY_cond $X=8.84 $Y=1.5
+ $X2=8.84 $Y2=1.295
r164 43 49 8.46218 $w=3.28e-07 $l=1.65e-07 $layer=LI1_cond $X=8.85 $Y=1.5
+ $X2=8.85 $Y2=1.335
r165 43 44 145.28 $w=1.7e-07 $l=1.7e-07 $layer=licon1_POLY $count=1 $X=8.85
+ $Y=1.5 $X2=8.85 $Y2=1.5
r166 41 43 11.3498 $w=3.28e-07 $l=3.25e-07 $layer=LI1_cond $X=8.85 $Y=1.825
+ $X2=8.85 $Y2=1.5
r167 38 49 28.3797 $w=1.68e-07 $l=4.35e-07 $layer=LI1_cond $X=8.77 $Y=0.9
+ $X2=8.77 $Y2=1.335
r168 36 38 6.81649 $w=1.7e-07 $l=1.20208e-07 $layer=LI1_cond $X=8.685 $Y=0.815
+ $X2=8.77 $Y2=0.9
r169 36 48 34.9037 $w=1.68e-07 $l=5.35e-07 $layer=LI1_cond $X=8.685 $Y=0.815
+ $X2=8.15 $Y2=0.815
r170 34 41 7.76618 $w=1.7e-07 $l=2.03101e-07 $layer=LI1_cond $X=8.685 $Y=1.91
+ $X2=8.85 $Y2=1.825
r171 34 35 60.0214 $w=1.68e-07 $l=9.2e-07 $layer=LI1_cond $X=8.685 $Y=1.91
+ $X2=7.765 $Y2=1.91
r172 30 35 7.76618 $w=1.7e-07 $l=2.03101e-07 $layer=LI1_cond $X=7.6 $Y=1.995
+ $X2=7.765 $Y2=1.91
r173 30 32 1.57151 $w=3.28e-07 $l=4.5e-08 $layer=LI1_cond $X=7.6 $Y=1.995
+ $X2=7.6 $Y2=2.04
r174 29 47 83.8342 $w=1.68e-07 $l=1.285e-06 $layer=LI1_cond $X=6.535 $Y=0.815
+ $X2=7.82 $Y2=0.815
r175 26 52 40.6903 $w=3.3e-07 $l=1.65e-07 $layer=POLY_cond $X=6.415 $Y=1.32
+ $X2=6.415 $Y2=1.485
r176 26 51 46.2115 $w=3.3e-07 $l=1.65e-07 $layer=POLY_cond $X=6.415 $Y=1.32
+ $X2=6.415 $Y2=1.155
r177 25 26 145.28 $w=1.7e-07 $l=1.7e-07 $layer=licon1_POLY $count=1 $X=6.415
+ $Y=1.32 $X2=6.415 $Y2=1.32
r178 23 29 7.07814 $w=1.7e-07 $l=1.56844e-07 $layer=LI1_cond $X=6.415 $Y=0.9
+ $X2=6.535 $Y2=0.815
r179 23 25 20.1678 $w=2.38e-07 $l=4.2e-07 $layer=LI1_cond $X=6.415 $Y=0.9
+ $X2=6.415 $Y2=1.32
r180 20 22 112.467 $w=1.5e-07 $l=3.5e-07 $layer=POLY_cond $X=9.325 $Y=1.22
+ $X2=9.325 $Y2=0.87
r181 19 53 22.6286 $w=1.5e-07 $l=1.75e-07 $layer=POLY_cond $X=9.015 $Y=1.295
+ $X2=8.84 $Y2=1.295
r182 18 20 26.9307 $w=1.5e-07 $l=1.06066e-07 $layer=POLY_cond $X=9.25 $Y=1.295
+ $X2=9.325 $Y2=1.22
r183 18 19 120.5 $w=1.5e-07 $l=2.35e-07 $layer=POLY_cond $X=9.25 $Y=1.295
+ $X2=9.015 $Y2=1.295
r184 16 56 252.661 $w=1.8e-07 $l=6.5e-07 $layer=POLY_cond $X=8.755 $Y=2.315
+ $X2=8.755 $Y2=1.665
r185 12 52 318.742 $w=1.8e-07 $l=8.2e-07 $layer=POLY_cond $X=6.45 $Y=2.305
+ $X2=6.45 $Y2=1.485
r186 9 51 102.827 $w=1.5e-07 $l=3.2e-07 $layer=POLY_cond $X=6.36 $Y=0.835
+ $X2=6.36 $Y2=1.155
r187 2 32 300 $w=1.7e-07 $l=2.88531e-07 $layer=licon1_PDIFF $count=2 $X=7.375
+ $Y=1.895 $X2=7.6 $Y2=2.04
r188 1 46 182 $w=1.7e-07 $l=2.4e-07 $layer=licon1_NDIFF $count=1 $X=7.845
+ $Y=0.595 $X2=7.985 $Y2=0.775
.ends

.subckt PM_SKY130_FD_SC_MS__SDFBBP_1%SET_B 3 7 11 15 18 19 20 22 23 24 26 27 28
+ 30 33 34 36 40 41 42 47 50
c171 28 0 9.6863e-20 $X=9.025 $Y=2.99
r172 51 55 5.37107 $w=3.18e-07 $l=1.4e-07 $layer=LI1_cond $X=11.22 $Y=1.635
+ $X2=11.22 $Y2=1.775
r173 50 53 40.6903 $w=3.3e-07 $l=1.65e-07 $layer=POLY_cond $X=11.22 $Y=1.635
+ $X2=11.22 $Y2=1.8
r174 50 52 46.2115 $w=3.3e-07 $l=1.65e-07 $layer=POLY_cond $X=11.22 $Y=1.635
+ $X2=11.22 $Y2=1.47
r175 50 51 145.28 $w=1.7e-07 $l=1.7e-07 $layer=licon1_POLY $count=1 $X=11.22
+ $Y=1.635 $X2=11.22 $Y2=1.635
r176 42 55 9.97484 $w=3.18e-07 $l=2.6e-07 $layer=LI1_cond $X=11.22 $Y=2.035
+ $X2=11.22 $Y2=1.775
r177 40 41 9.42727 $w=1.98e-07 $l=1.7e-07 $layer=LI1_cond $X=10.195 $Y=2.015
+ $X2=10.195 $Y2=2.185
r178 37 47 13.1146 $w=3.3e-07 $l=7.5e-08 $layer=POLY_cond $X=7.21 $Y=1.535
+ $X2=7.285 $Y2=1.535
r179 37 44 34.0979 $w=3.3e-07 $l=1.95e-07 $layer=POLY_cond $X=7.21 $Y=1.535
+ $X2=7.015 $Y2=1.535
r180 36 39 6.89066 $w=3.28e-07 $l=1.2e-07 $layer=LI1_cond $X=7.21 $Y=1.535
+ $X2=7.21 $Y2=1.655
r181 36 37 145.28 $w=1.7e-07 $l=1.7e-07 $layer=licon1_POLY $count=1 $X=7.21
+ $Y=1.535 $X2=7.21 $Y2=1.535
r182 33 55 4.40442 $w=1.7e-07 $l=1.65e-07 $layer=LI1_cond $X=11.055 $Y=1.775
+ $X2=11.22 $Y2=1.775
r183 33 34 49.5829 $w=1.68e-07 $l=7.6e-07 $layer=LI1_cond $X=11.055 $Y=1.775
+ $X2=10.295 $Y2=1.775
r184 31 34 6.81649 $w=1.7e-07 $l=1.20208e-07 $layer=LI1_cond $X=10.21 $Y=1.86
+ $X2=10.295 $Y2=1.775
r185 31 40 10.1123 $w=1.68e-07 $l=1.55e-07 $layer=LI1_cond $X=10.21 $Y=1.86
+ $X2=10.21 $Y2=2.015
r186 30 41 46.9733 $w=1.68e-07 $l=7.2e-07 $layer=LI1_cond $X=10.18 $Y=2.905
+ $X2=10.18 $Y2=2.185
r187 27 30 6.81649 $w=1.7e-07 $l=1.20208e-07 $layer=LI1_cond $X=10.095 $Y=2.99
+ $X2=10.18 $Y2=2.905
r188 27 28 69.8075 $w=1.68e-07 $l=1.07e-06 $layer=LI1_cond $X=10.095 $Y=2.99
+ $X2=9.025 $Y2=2.99
r189 26 28 6.81649 $w=1.7e-07 $l=1.20208e-07 $layer=LI1_cond $X=8.94 $Y=2.905
+ $X2=9.025 $Y2=2.99
r190 25 26 37.1872 $w=1.68e-07 $l=5.7e-07 $layer=LI1_cond $X=8.94 $Y=2.335
+ $X2=8.94 $Y2=2.905
r191 23 25 6.81649 $w=1.7e-07 $l=1.20208e-07 $layer=LI1_cond $X=8.855 $Y=2.25
+ $X2=8.94 $Y2=2.335
r192 23 24 48.9305 $w=1.68e-07 $l=7.5e-07 $layer=LI1_cond $X=8.855 $Y=2.25
+ $X2=8.105 $Y2=2.25
r193 21 24 6.81649 $w=1.7e-07 $l=1.20208e-07 $layer=LI1_cond $X=8.02 $Y=2.335
+ $X2=8.105 $Y2=2.25
r194 21 22 37.1872 $w=1.68e-07 $l=5.7e-07 $layer=LI1_cond $X=8.02 $Y=2.335
+ $X2=8.02 $Y2=2.905
r195 19 22 6.81649 $w=1.7e-07 $l=1.20208e-07 $layer=LI1_cond $X=7.935 $Y=2.99
+ $X2=8.02 $Y2=2.905
r196 19 20 43.7112 $w=1.68e-07 $l=6.7e-07 $layer=LI1_cond $X=7.935 $Y=2.99
+ $X2=7.265 $Y2=2.99
r197 18 20 6.81649 $w=1.7e-07 $l=1.20208e-07 $layer=LI1_cond $X=7.18 $Y=2.905
+ $X2=7.265 $Y2=2.99
r198 18 39 81.5508 $w=1.68e-07 $l=1.25e-06 $layer=LI1_cond $X=7.18 $Y=2.905
+ $X2=7.18 $Y2=1.655
r199 15 53 256.548 $w=1.8e-07 $l=6.6e-07 $layer=POLY_cond $X=11.295 $Y=2.46
+ $X2=11.295 $Y2=1.8
r200 11 52 374.319 $w=1.5e-07 $l=7.3e-07 $layer=POLY_cond $X=11.28 $Y=0.74
+ $X2=11.28 $Y2=1.47
r201 5 47 16.9318 $w=1.8e-07 $l=1.65e-07 $layer=POLY_cond $X=7.285 $Y=1.7
+ $X2=7.285 $Y2=1.535
r202 5 7 239.056 $w=1.8e-07 $l=6.15e-07 $layer=POLY_cond $X=7.285 $Y=1.7
+ $X2=7.285 $Y2=2.315
r203 1 44 21.2229 $w=1.5e-07 $l=1.65e-07 $layer=POLY_cond $X=7.015 $Y=1.37
+ $X2=7.015 $Y2=1.535
r204 1 3 241 $w=1.5e-07 $l=4.7e-07 $layer=POLY_cond $X=7.015 $Y=1.37 $X2=7.015
+ $Y2=0.9
.ends

.subckt PM_SKY130_FD_SC_MS__SDFBBP_1%A_1092_96# 1 2 9 12 14 19 21 22 25 26 27 30
+ 31 34 36 38
c114 38 0 8.70027e-20 $X=7.75 $Y=1.255
c115 36 0 3.53193e-20 $X=6.04 $Y=1.74
c116 30 0 8.34275e-20 $X=7.75 $Y=1.42
c117 26 0 7.45928e-20 $X=7.585 $Y=1.155
r118 31 39 40.6903 $w=3.3e-07 $l=1.65e-07 $layer=POLY_cond $X=7.75 $Y=1.42
+ $X2=7.75 $Y2=1.585
r119 31 38 46.2115 $w=3.3e-07 $l=1.65e-07 $layer=POLY_cond $X=7.75 $Y=1.42
+ $X2=7.75 $Y2=1.255
r120 30 31 145.28 $w=1.7e-07 $l=1.7e-07 $layer=licon1_POLY $count=1 $X=7.75
+ $Y=1.42 $X2=7.75 $Y2=1.42
r121 28 30 6.28605 $w=3.28e-07 $l=1.8e-07 $layer=LI1_cond $X=7.75 $Y=1.24
+ $X2=7.75 $Y2=1.42
r122 26 28 7.76618 $w=1.7e-07 $l=2.03101e-07 $layer=LI1_cond $X=7.585 $Y=1.155
+ $X2=7.75 $Y2=1.24
r123 26 27 46.3209 $w=1.68e-07 $l=7.1e-07 $layer=LI1_cond $X=7.585 $Y=1.155
+ $X2=6.875 $Y2=1.155
r124 24 27 6.81649 $w=1.7e-07 $l=1.20208e-07 $layer=LI1_cond $X=6.79 $Y=1.24
+ $X2=6.875 $Y2=1.155
r125 24 25 27.0749 $w=1.68e-07 $l=4.15e-07 $layer=LI1_cond $X=6.79 $Y=1.24
+ $X2=6.79 $Y2=1.655
r126 23 36 1.34256 $w=1.7e-07 $l=8.5e-08 $layer=LI1_cond $X=6.125 $Y=1.74
+ $X2=6.04 $Y2=1.74
r127 22 25 6.81649 $w=1.7e-07 $l=1.20208e-07 $layer=LI1_cond $X=6.705 $Y=1.74
+ $X2=6.79 $Y2=1.655
r128 22 23 37.8396 $w=1.68e-07 $l=5.8e-07 $layer=LI1_cond $X=6.705 $Y=1.74
+ $X2=6.125 $Y2=1.74
r129 20 36 5.16603 $w=1.7e-07 $l=8.5e-08 $layer=LI1_cond $X=6.04 $Y=1.825
+ $X2=6.04 $Y2=1.74
r130 20 21 24.7914 $w=1.68e-07 $l=3.8e-07 $layer=LI1_cond $X=6.04 $Y=1.825
+ $X2=6.04 $Y2=2.205
r131 19 36 5.16603 $w=1.7e-07 $l=8.5e-08 $layer=LI1_cond $X=6.04 $Y=1.655
+ $X2=6.04 $Y2=1.74
r132 18 34 15.6194 $w=2.89e-07 $l=4.58432e-07 $layer=LI1_cond $X=6.04 $Y=0.855
+ $X2=5.67 $Y2=0.657
r133 18 19 52.1925 $w=1.68e-07 $l=8e-07 $layer=LI1_cond $X=6.04 $Y=0.855
+ $X2=6.04 $Y2=1.655
r134 14 21 7.76618 $w=3.3e-07 $l=2.03101e-07 $layer=LI1_cond $X=5.955 $Y=2.37
+ $X2=6.04 $Y2=2.205
r135 14 16 6.46067 $w=3.28e-07 $l=1.85e-07 $layer=LI1_cond $X=5.955 $Y=2.37
+ $X2=5.77 $Y2=2.37
r136 12 39 283.758 $w=1.8e-07 $l=7.3e-07 $layer=POLY_cond $X=7.825 $Y=2.315
+ $X2=7.825 $Y2=1.585
r137 9 38 123.713 $w=1.5e-07 $l=3.85e-07 $layer=POLY_cond $X=7.77 $Y=0.87
+ $X2=7.77 $Y2=1.255
r138 2 16 600 $w=1.7e-07 $l=3.67083e-07 $layer=licon1_PDIFF $count=1 $X=5.555
+ $Y=2.095 $X2=5.77 $Y2=2.37
r139 1 34 182 $w=1.7e-07 $l=2.84341e-07 $layer=licon1_NDIFF $count=1 $X=5.46
+ $Y=0.48 $X2=5.67 $Y2=0.655
.ends

.subckt PM_SKY130_FD_SC_MS__SDFBBP_1%A_1625_93# 1 2 9 12 16 18 20 22 24 28 30 31
+ 34 37 38 41 45 47
c131 47 0 8.34275e-20 $X=8.29 $Y=1.255
c132 34 0 8.70027e-20 $X=8.4 $Y=1.295
c133 30 0 1.86161e-19 $X=12.575 $Y=1.295
c134 18 0 1.08742e-19 $X=12.25 $Y=1.22
r135 45 48 40.6903 $w=3.3e-07 $l=1.65e-07 $layer=POLY_cond $X=8.29 $Y=1.42
+ $X2=8.29 $Y2=1.585
r136 45 47 46.2115 $w=3.3e-07 $l=1.65e-07 $layer=POLY_cond $X=8.29 $Y=1.42
+ $X2=8.29 $Y2=1.255
r137 38 54 16.2483 $w=4.43e-07 $l=5.9e-07 $layer=LI1_cond $X=12.8 $Y=1.295
+ $X2=12.8 $Y2=1.885
r138 38 41 145.28 $w=1.7e-07 $l=1.7e-07 $layer=licon1_POLY $count=1 $X=12.61
+ $Y=1.385 $X2=12.61 $Y2=1.385
r139 37 38 9.3 $w=1.7e-07 $l=1.7e-07 $layer=mcon $count=1 $X=12.72 $Y=1.295
+ $X2=12.72 $Y2=1.295
r140 34 45 145.28 $w=1.7e-07 $l=1.7e-07 $layer=licon1_POLY $count=1 $X=8.29
+ $Y=1.42 $X2=8.29 $Y2=1.42
r141 33 34 9.3 $w=1.7e-07 $l=1.7e-07 $layer=mcon $count=1 $X=8.4 $Y=1.295
+ $X2=8.4 $Y2=1.295
r142 31 33 0.115467 $w=2.3e-07 $l=1.45e-07 $layer=MET1_cond $X=8.545 $Y=1.295
+ $X2=8.4 $Y2=1.295
r143 30 37 0.115467 $w=2.3e-07 $l=1.45e-07 $layer=MET1_cond $X=12.575 $Y=1.295
+ $X2=12.72 $Y2=1.295
r144 30 31 4.98761 $w=1.4e-07 $l=4.03e-06 $layer=MET1_cond $X=12.575 $Y=1.295
+ $X2=8.545 $Y2=1.295
r145 25 28 7.45698 $w=3.38e-07 $l=2.2e-07 $layer=LI1_cond $X=12.81 $Y=0.84
+ $X2=13.03 $Y2=0.84
r146 24 38 7.99268 $w=4.43e-07 $l=1.19896e-07 $layer=LI1_cond $X=12.81 $Y=1.18
+ $X2=12.8 $Y2=1.295
r147 23 25 4.80115 $w=1.7e-07 $l=1.7e-07 $layer=LI1_cond $X=12.81 $Y=1.01
+ $X2=12.81 $Y2=0.84
r148 23 24 11.0909 $w=1.68e-07 $l=1.7e-07 $layer=LI1_cond $X=12.81 $Y=1.01
+ $X2=12.81 $Y2=1.18
r149 21 41 49.8355 $w=3.3e-07 $l=2.85e-07 $layer=POLY_cond $X=12.325 $Y=1.385
+ $X2=12.61 $Y2=1.385
r150 21 22 3.90195 $w=3.3e-07 $l=1.8735e-07 $layer=POLY_cond $X=12.325 $Y=1.385
+ $X2=12.145 $Y2=1.4
r151 18 22 34.7346 $w=1.65e-07 $l=2.26495e-07 $layer=POLY_cond $X=12.25 $Y=1.22
+ $X2=12.145 $Y2=1.4
r152 18 20 154.24 $w=1.5e-07 $l=4.8e-07 $layer=POLY_cond $X=12.25 $Y=1.22
+ $X2=12.25 $Y2=0.74
r153 14 22 34.7346 $w=1.65e-07 $l=1.89737e-07 $layer=POLY_cond $X=12.235 $Y=1.55
+ $X2=12.145 $Y2=1.4
r154 14 16 353.726 $w=1.8e-07 $l=9.1e-07 $layer=POLY_cond $X=12.235 $Y=1.55
+ $X2=12.235 $Y2=2.46
r155 12 48 283.758 $w=1.8e-07 $l=7.3e-07 $layer=POLY_cond $X=8.245 $Y=2.315
+ $X2=8.245 $Y2=1.585
r156 9 47 123.713 $w=1.5e-07 $l=3.85e-07 $layer=POLY_cond $X=8.2 $Y=0.87 $X2=8.2
+ $Y2=1.255
r157 2 54 600 $w=1.7e-07 $l=1.99687e-07 $layer=licon1_PDIFF $count=1 $X=12.86
+ $Y=1.74 $X2=12.99 $Y2=1.885
r158 1 28 182 $w=1.7e-07 $l=2.10357e-07 $layer=licon1_NDIFF $count=1 $X=12.885
+ $Y=0.69 $X2=13.03 $Y2=0.84
.ends

.subckt PM_SKY130_FD_SC_MS__SDFBBP_1%A_622_98# 1 2 9 12 14 17 19 20 21 22 23 24
+ 26 29 31 36 39 40 41 44 47 48 49 52 54 57 60 61 65 66 69 70 72 74 78 81 82 83
+ 84 92
c237 78 0 4.76468e-20 $X=4.4 $Y=1.505
c238 61 0 2.2075e-19 $X=9.42 $Y=1.775
c239 60 0 1.85168e-19 $X=9.42 $Y=1.775
c240 40 0 4.96599e-20 $X=4.875 $Y=1.415
c241 24 0 1.65947e-19 $X=5.385 $Y=0.405
r242 83 84 30.474 $w=3.3e-07 $l=7.5e-08 $layer=POLY_cond $X=4.4 $Y=1.415 $X2=4.4
+ $Y2=1.34
r243 81 82 8.63679 $w=3.28e-07 $l=1.7e-07 $layer=LI1_cond $X=9.435 $Y=1.335
+ $X2=9.435 $Y2=1.505
r244 79 86 40.6903 $w=3.3e-07 $l=1.65e-07 $layer=POLY_cond $X=4.4 $Y=1.505
+ $X2=4.4 $Y2=1.67
r245 79 83 15.7375 $w=3.3e-07 $l=9e-08 $layer=POLY_cond $X=4.4 $Y=1.505 $X2=4.4
+ $Y2=1.415
r246 78 79 145.28 $w=1.7e-07 $l=1.7e-07 $layer=licon1_POLY $count=1 $X=4.4
+ $Y=1.505 $X2=4.4 $Y2=1.505
r247 75 78 8.3814 $w=3.28e-07 $l=2.4e-07 $layer=LI1_cond $X=4.16 $Y=1.505
+ $X2=4.4 $Y2=1.505
r248 70 92 46.2115 $w=3.3e-07 $l=1.65e-07 $layer=POLY_cond $X=10.32 $Y=1.065
+ $X2=10.32 $Y2=0.9
r249 69 70 145.28 $w=1.7e-07 $l=1.7e-07 $layer=licon1_POLY $count=1 $X=10.32
+ $Y=1.065 $X2=10.32 $Y2=1.065
r250 67 69 22.3504 $w=3.28e-07 $l=6.4e-07 $layer=LI1_cond $X=10.32 $Y=0.425
+ $X2=10.32 $Y2=1.065
r251 65 67 7.76618 $w=1.7e-07 $l=2.03101e-07 $layer=LI1_cond $X=10.155 $Y=0.34
+ $X2=10.32 $Y2=0.425
r252 65 66 35.2299 $w=1.68e-07 $l=5.4e-07 $layer=LI1_cond $X=10.155 $Y=0.34
+ $X2=9.615 $Y2=0.34
r253 63 66 6.81649 $w=1.7e-07 $l=1.20208e-07 $layer=LI1_cond $X=9.53 $Y=0.425
+ $X2=9.615 $Y2=0.34
r254 63 81 59.369 $w=1.68e-07 $l=9.1e-07 $layer=LI1_cond $X=9.53 $Y=0.425
+ $X2=9.53 $Y2=1.335
r255 61 87 18.3604 $w=3.3e-07 $l=1.05e-07 $layer=POLY_cond $X=9.42 $Y=1.775
+ $X2=9.315 $Y2=1.775
r256 60 82 9.42908 $w=3.28e-07 $l=2.7e-07 $layer=LI1_cond $X=9.42 $Y=1.775
+ $X2=9.42 $Y2=1.505
r257 60 61 145.28 $w=1.7e-07 $l=1.7e-07 $layer=licon1_POLY $count=1 $X=9.42
+ $Y=1.775 $X2=9.42 $Y2=1.775
r258 56 75 4.62375 $w=1.7e-07 $l=1.65e-07 $layer=LI1_cond $X=4.16 $Y=1.67
+ $X2=4.16 $Y2=1.505
r259 56 57 11.0909 $w=1.68e-07 $l=1.7e-07 $layer=LI1_cond $X=4.16 $Y=1.67
+ $X2=4.16 $Y2=1.84
r260 55 74 8.61065 $w=1.7e-07 $l=1.65e-07 $layer=LI1_cond $X=3.845 $Y=1.925
+ $X2=3.68 $Y2=1.925
r261 54 57 6.81649 $w=1.7e-07 $l=1.20208e-07 $layer=LI1_cond $X=4.075 $Y=1.925
+ $X2=4.16 $Y2=1.84
r262 54 55 15.0053 $w=1.68e-07 $l=2.3e-07 $layer=LI1_cond $X=4.075 $Y=1.925
+ $X2=3.845 $Y2=1.925
r263 50 74 0.89609 $w=3.3e-07 $l=8.5e-08 $layer=LI1_cond $X=3.68 $Y=2.01
+ $X2=3.68 $Y2=1.925
r264 50 52 28.1126 $w=3.28e-07 $l=8.05e-07 $layer=LI1_cond $X=3.68 $Y=2.01
+ $X2=3.68 $Y2=2.815
r265 48 74 8.61065 $w=1.7e-07 $l=1.65e-07 $layer=LI1_cond $X=3.515 $Y=1.925
+ $X2=3.68 $Y2=1.925
r266 48 49 16.6364 $w=1.68e-07 $l=2.55e-07 $layer=LI1_cond $X=3.515 $Y=1.925
+ $X2=3.26 $Y2=1.925
r267 47 49 6.81649 $w=1.7e-07 $l=1.20208e-07 $layer=LI1_cond $X=3.175 $Y=1.84
+ $X2=3.26 $Y2=1.925
r268 47 72 54.1497 $w=1.68e-07 $l=8.3e-07 $layer=LI1_cond $X=3.175 $Y=1.84
+ $X2=3.175 $Y2=1.01
r269 42 72 6.94937 $w=2.48e-07 $l=1.25e-07 $layer=LI1_cond $X=3.215 $Y=0.885
+ $X2=3.215 $Y2=1.01
r270 42 44 3.91831 $w=2.48e-07 $l=8.5e-08 $layer=LI1_cond $X=3.215 $Y=0.885
+ $X2=3.215 $Y2=0.8
r271 39 92 102.827 $w=1.5e-07 $l=3.2e-07 $layer=POLY_cond $X=10.23 $Y=0.58
+ $X2=10.23 $Y2=0.9
r272 34 36 215.734 $w=1.8e-07 $l=5.55e-07 $layer=POLY_cond $X=9.315 $Y=3.075
+ $X2=9.315 $Y2=2.52
r273 33 87 16.9318 $w=1.8e-07 $l=1.65e-07 $layer=POLY_cond $X=9.315 $Y=1.94
+ $X2=9.315 $Y2=1.775
r274 33 36 225.452 $w=1.8e-07 $l=5.8e-07 $layer=POLY_cond $X=9.315 $Y=1.94
+ $X2=9.315 $Y2=2.52
r275 32 41 23.6879 $w=1.5e-07 $l=9e-08 $layer=POLY_cond $X=6.12 $Y=3.15 $X2=6.03
+ $Y2=3.15
r276 31 34 27.2212 $w=1.5e-07 $l=1.21861e-07 $layer=POLY_cond $X=9.225 $Y=3.15
+ $X2=9.315 $Y2=3.075
r277 31 32 1592.14 $w=1.5e-07 $l=3.105e-06 $layer=POLY_cond $X=9.225 $Y=3.15
+ $X2=6.12 $Y2=3.15
r278 27 41 2.7459 $w=1.8e-07 $l=7.5e-08 $layer=POLY_cond $X=6.03 $Y=3.075
+ $X2=6.03 $Y2=3.15
r279 27 29 299.306 $w=1.8e-07 $l=7.7e-07 $layer=POLY_cond $X=6.03 $Y=3.075
+ $X2=6.03 $Y2=2.305
r280 24 26 91.58 $w=1.5e-07 $l=2.85e-07 $layer=POLY_cond $X=5.385 $Y=0.405
+ $X2=5.385 $Y2=0.69
r281 22 41 23.6879 $w=1.5e-07 $l=9e-08 $layer=POLY_cond $X=5.94 $Y=3.15 $X2=6.03
+ $Y2=3.15
r282 22 23 507.638 $w=1.5e-07 $l=9.9e-07 $layer=POLY_cond $X=5.94 $Y=3.15
+ $X2=4.95 $Y2=3.15
r283 20 24 26.9307 $w=1.5e-07 $l=1.06066e-07 $layer=POLY_cond $X=5.31 $Y=0.33
+ $X2=5.385 $Y2=0.405
r284 20 21 184.596 $w=1.5e-07 $l=3.6e-07 $layer=POLY_cond $X=5.31 $Y=0.33
+ $X2=4.95 $Y2=0.33
r285 19 23 26.9307 $w=1.5e-07 $l=1.06066e-07 $layer=POLY_cond $X=4.875 $Y=3.075
+ $X2=4.95 $Y2=3.15
r286 18 40 20.4101 $w=1.5e-07 $l=7.5e-08 $layer=POLY_cond $X=4.875 $Y=1.49
+ $X2=4.875 $Y2=1.415
r287 18 19 812.734 $w=1.5e-07 $l=1.585e-06 $layer=POLY_cond $X=4.875 $Y=1.49
+ $X2=4.875 $Y2=3.075
r288 17 40 20.4101 $w=1.5e-07 $l=7.5e-08 $layer=POLY_cond $X=4.875 $Y=1.34
+ $X2=4.875 $Y2=1.415
r289 16 21 26.9307 $w=1.5e-07 $l=1.06066e-07 $layer=POLY_cond $X=4.875 $Y=0.405
+ $X2=4.95 $Y2=0.33
r290 16 17 479.436 $w=1.5e-07 $l=9.35e-07 $layer=POLY_cond $X=4.875 $Y=0.405
+ $X2=4.875 $Y2=1.34
r291 15 83 21.2229 $w=1.5e-07 $l=1.65e-07 $layer=POLY_cond $X=4.565 $Y=1.415
+ $X2=4.4 $Y2=1.415
r292 14 40 5.30422 $w=1.5e-07 $l=7.5e-08 $layer=POLY_cond $X=4.8 $Y=1.415
+ $X2=4.875 $Y2=1.415
r293 14 15 120.5 $w=1.5e-07 $l=2.35e-07 $layer=POLY_cond $X=4.8 $Y=1.415
+ $X2=4.565 $Y2=1.415
r294 12 86 283.758 $w=1.8e-07 $l=7.3e-07 $layer=POLY_cond $X=4.355 $Y=2.4
+ $X2=4.355 $Y2=1.67
r295 9 84 154.24 $w=1.5e-07 $l=4.8e-07 $layer=POLY_cond $X=4.31 $Y=0.86 $X2=4.31
+ $Y2=1.34
r296 2 74 400 $w=1.7e-07 $l=2.26164e-07 $layer=licon1_PDIFF $count=1 $X=3.535
+ $Y=1.84 $X2=3.68 $Y2=2.005
r297 2 52 400 $w=1.7e-07 $l=1.04499e-06 $layer=licon1_PDIFF $count=1 $X=3.535
+ $Y=1.84 $X2=3.68 $Y2=2.815
r298 1 44 182 $w=1.7e-07 $l=3.75566e-07 $layer=licon1_NDIFF $count=1 $X=3.11
+ $Y=0.49 $X2=3.255 $Y2=0.8
.ends

.subckt PM_SKY130_FD_SC_MS__SDFBBP_1%A_877_98# 1 2 7 9 11 16 17 18 22 23 25 31
+ 33 34 40 43 48 52 53 54
c155 48 0 1.3428e-19 $X=5.325 $Y=1.53
c156 34 0 3.16672e-20 $X=4.735 $Y=1.085
c157 31 0 2.56036e-20 $X=9.87 $Y=1.295
c158 16 0 2.61122e-19 $X=5.885 $Y=0.69
c159 7 0 1.40154e-19 $X=5.465 $Y=1.845
r160 52 53 9.45624 $w=4.88e-07 $l=1.65e-07 $layer=LI1_cond $X=4.66 $Y=2.005
+ $X2=4.66 $Y2=1.84
r161 49 55 14.3168 $w=3.03e-07 $l=9e-08 $layer=POLY_cond $X=5.357 $Y=1.53
+ $X2=5.357 $Y2=1.44
r162 48 49 145.28 $w=1.7e-07 $l=1.7e-07 $layer=licon1_POLY $count=1 $X=5.325
+ $Y=1.53 $X2=5.325 $Y2=1.53
r163 46 54 0.89609 $w=3.3e-07 $l=8.5e-08 $layer=LI1_cond $X=4.905 $Y=1.53
+ $X2=4.82 $Y2=1.53
r164 46 48 14.6675 $w=3.28e-07 $l=4.2e-07 $layer=LI1_cond $X=4.905 $Y=1.53
+ $X2=5.325 $Y2=1.53
r165 44 54 8.61065 $w=1.7e-07 $l=1.65e-07 $layer=LI1_cond $X=4.82 $Y=1.695
+ $X2=4.82 $Y2=1.53
r166 44 53 9.45989 $w=1.68e-07 $l=1.45e-07 $layer=LI1_cond $X=4.82 $Y=1.695
+ $X2=4.82 $Y2=1.84
r167 43 54 8.61065 $w=1.7e-07 $l=1.65e-07 $layer=LI1_cond $X=4.82 $Y=1.365
+ $X2=4.82 $Y2=1.53
r168 42 43 12.7219 $w=1.68e-07 $l=1.95e-07 $layer=LI1_cond $X=4.82 $Y=1.17
+ $X2=4.82 $Y2=1.365
r169 38 52 1.95278 $w=4.88e-07 $l=8e-08 $layer=LI1_cond $X=4.66 $Y=2.085
+ $X2=4.66 $Y2=2.005
r170 38 40 17.8191 $w=4.88e-07 $l=7.3e-07 $layer=LI1_cond $X=4.66 $Y=2.085
+ $X2=4.66 $Y2=2.815
r171 34 42 6.81649 $w=1.7e-07 $l=1.20208e-07 $layer=LI1_cond $X=4.735 $Y=1.085
+ $X2=4.82 $Y2=1.17
r172 34 36 12.0695 $w=1.68e-07 $l=1.85e-07 $layer=LI1_cond $X=4.735 $Y=1.085
+ $X2=4.55 $Y2=1.085
r173 29 31 94.8617 $w=1.5e-07 $l=1.85e-07 $layer=POLY_cond $X=9.685 $Y=1.295
+ $X2=9.87 $Y2=1.295
r174 27 31 2.83073 $w=1.5e-07 $l=7.5e-08 $layer=POLY_cond $X=9.87 $Y=1.37
+ $X2=9.87 $Y2=1.295
r175 27 33 415.34 $w=1.5e-07 $l=8.1e-07 $layer=POLY_cond $X=9.87 $Y=1.37
+ $X2=9.87 $Y2=2.18
r176 23 33 37.1337 $w=1.8e-07 $l=9e-08 $layer=POLY_cond $X=9.855 $Y=2.27
+ $X2=9.855 $Y2=2.18
r177 23 25 178.806 $w=1.8e-07 $l=4.6e-07 $layer=POLY_cond $X=9.855 $Y=2.27
+ $X2=9.855 $Y2=2.73
r178 20 29 2.83073 $w=1.5e-07 $l=7.5e-08 $layer=POLY_cond $X=9.685 $Y=1.22
+ $X2=9.685 $Y2=1.295
r179 20 22 179.468 $w=1.5e-07 $l=3.5e-07 $layer=POLY_cond $X=9.685 $Y=1.22
+ $X2=9.685 $Y2=0.87
r180 19 22 315.351 $w=1.5e-07 $l=6.15e-07 $layer=POLY_cond $X=9.685 $Y=0.255
+ $X2=9.685 $Y2=0.87
r181 17 19 26.9307 $w=1.5e-07 $l=1.06066e-07 $layer=POLY_cond $X=9.61 $Y=0.18
+ $X2=9.685 $Y2=0.255
r182 17 18 1871.6 $w=1.5e-07 $l=3.65e-06 $layer=POLY_cond $X=9.61 $Y=0.18
+ $X2=5.96 $Y2=0.18
r183 14 16 346.117 $w=1.5e-07 $l=6.75e-07 $layer=POLY_cond $X=5.885 $Y=1.365
+ $X2=5.885 $Y2=0.69
r184 13 18 26.9307 $w=1.5e-07 $l=1.06066e-07 $layer=POLY_cond $X=5.885 $Y=0.255
+ $X2=5.96 $Y2=0.18
r185 13 16 223.053 $w=1.5e-07 $l=4.35e-07 $layer=POLY_cond $X=5.885 $Y=0.255
+ $X2=5.885 $Y2=0.69
r186 12 55 19.2026 $w=1.5e-07 $l=1.68e-07 $layer=POLY_cond $X=5.525 $Y=1.44
+ $X2=5.357 $Y2=1.44
r187 11 14 26.9307 $w=1.5e-07 $l=1.06066e-07 $layer=POLY_cond $X=5.81 $Y=1.44
+ $X2=5.885 $Y2=1.365
r188 11 12 146.138 $w=1.5e-07 $l=2.85e-07 $layer=POLY_cond $X=5.81 $Y=1.44
+ $X2=5.525 $Y2=1.44
r189 7 49 57.9877 $w=3.03e-07 $l=3.65027e-07 $layer=POLY_cond $X=5.465 $Y=1.845
+ $X2=5.357 $Y2=1.53
r190 7 9 221.565 $w=1.8e-07 $l=5.7e-07 $layer=POLY_cond $X=5.465 $Y=1.845
+ $X2=5.465 $Y2=2.415
r191 2 52 400 $w=1.7e-07 $l=2.22486e-07 $layer=licon1_PDIFF $count=1 $X=4.445
+ $Y=1.84 $X2=4.58 $Y2=2.005
r192 2 40 400 $w=1.7e-07 $l=1.04031e-06 $layer=licon1_PDIFF $count=1 $X=4.445
+ $Y=1.84 $X2=4.58 $Y2=2.815
r193 1 36 182 $w=1.7e-07 $l=6.72458e-07 $layer=licon1_NDIFF $count=1 $X=4.385
+ $Y=0.49 $X2=4.55 $Y2=1.085
.ends

.subckt PM_SKY130_FD_SC_MS__SDFBBP_1%A_2037_442# 1 2 9 13 17 21 22 25 26 28 29
+ 30 32 33 35 36 39 44 45 46 48 50 51 56 60 66 72 73
r182 72 73 30.474 $w=3.3e-07 $l=7.5e-08 $layer=POLY_cond $X=13.75 $Y=1.295
+ $X2=13.75 $Y2=1.22
r183 67 75 40.6903 $w=3.3e-07 $l=1.65e-07 $layer=POLY_cond $X=13.75 $Y=1.385
+ $X2=13.75 $Y2=1.55
r184 67 72 15.7375 $w=3.3e-07 $l=9e-08 $layer=POLY_cond $X=13.75 $Y=1.385
+ $X2=13.75 $Y2=1.295
r185 66 67 145.28 $w=1.7e-07 $l=1.7e-07 $layer=licon1_POLY $count=1 $X=13.75
+ $Y=1.385 $X2=13.75 $Y2=1.385
r186 63 66 4.71454 $w=3.28e-07 $l=1.35e-07 $layer=LI1_cond $X=13.615 $Y=1.385
+ $X2=13.75 $Y2=1.385
r187 60 62 9.98259 $w=3.43e-07 $l=2.1e-07 $layer=LI1_cond $X=12.042 $Y=0.8
+ $X2=12.042 $Y2=1.01
r188 56 58 15.3251 $w=4.06e-07 $l=5.1e-07 $layer=LI1_cond $X=11.62 $Y=2.23
+ $X2=12.13 $Y2=2.23
r189 51 71 26.6719 $w=2.53e-07 $l=1.4e-07 $layer=POLY_cond $X=10.63 $Y=2.195
+ $X2=10.77 $Y2=2.195
r190 50 53 7.33373 $w=3.28e-07 $l=2.1e-07 $layer=LI1_cond $X=10.63 $Y=2.195
+ $X2=10.63 $Y2=2.405
r191 50 51 145.28 $w=1.7e-07 $l=1.7e-07 $layer=licon1_POLY $count=1 $X=10.63
+ $Y=2.195 $X2=10.63 $Y2=2.195
r192 47 63 4.62375 $w=1.7e-07 $l=1.65e-07 $layer=LI1_cond $X=13.615 $Y=1.55
+ $X2=13.615 $Y2=1.385
r193 47 48 38.492 $w=1.68e-07 $l=5.9e-07 $layer=LI1_cond $X=13.615 $Y=1.55
+ $X2=13.615 $Y2=2.14
r194 46 58 6.77762 $w=4.06e-07 $l=8.74643e-08 $layer=LI1_cond $X=12.215 $Y=2.225
+ $X2=12.13 $Y2=2.23
r195 45 48 6.81649 $w=1.7e-07 $l=1.20208e-07 $layer=LI1_cond $X=13.53 $Y=2.225
+ $X2=13.615 $Y2=2.14
r196 45 46 85.7914 $w=1.68e-07 $l=1.315e-06 $layer=LI1_cond $X=13.53 $Y=2.225
+ $X2=12.215 $Y2=2.225
r197 44 58 5.869 $w=1.7e-07 $l=2.6e-07 $layer=LI1_cond $X=12.13 $Y=1.97
+ $X2=12.13 $Y2=2.23
r198 44 62 62.631 $w=1.68e-07 $l=9.6e-07 $layer=LI1_cond $X=12.13 $Y=1.97
+ $X2=12.13 $Y2=1.01
r199 40 53 4.62375 $w=1.7e-07 $l=1.65e-07 $layer=LI1_cond $X=10.795 $Y=2.405
+ $X2=10.63 $Y2=2.405