* File: sky130_fd_sc_ms__dfstp_1.pex.spice
* Created: Wed Sep  2 12:03:36 2020
* Program "Calibre xRC"
* Version "v2018.4_34.26"
* Nominal Temperature: 27C
* Circuit Temperature: 27C
* 
.subckt PM_SKY130_FD_SC_MS__DFSTP_1%D 2 5 9 11 12 16 17 20
c34 17 0 1.00526e-19 $X=0.64 $Y=1.145
r35 20 22 39.9775 $w=4e-07 $l=1.65e-07 $layer=POLY_cond $X=0.605 $Y=1.825
+ $X2=0.605 $Y2=1.99
r36 20 21 96.8533 $w=1.7e-07 $l=2.55e-07 $layer=licon1_POLY $count=1 $X=0.64
+ $Y=1.825 $X2=0.64 $Y2=1.825
r37 16 18 45.6753 $w=4e-07 $l=1.65e-07 $layer=POLY_cond $X=0.605 $Y=1.145
+ $X2=0.605 $Y2=0.98
r38 16 17 96.8533 $w=1.7e-07 $l=2.55e-07 $layer=licon1_POLY $count=1 $X=0.64
+ $Y=1.145 $X2=0.64 $Y2=1.145
r39 12 21 5.5876 $w=3.28e-07 $l=1.6e-07 $layer=LI1_cond $X=0.64 $Y=1.665
+ $X2=0.64 $Y2=1.825
r40 11 12 12.9213 $w=3.28e-07 $l=3.7e-07 $layer=LI1_cond $X=0.64 $Y=1.295
+ $X2=0.64 $Y2=1.665
r41 11 17 5.23838 $w=3.28e-07 $l=1.5e-07 $layer=LI1_cond $X=0.64 $Y=1.295
+ $X2=0.64 $Y2=1.145
r42 9 18 205.106 $w=1.5e-07 $l=4e-07 $layer=POLY_cond $X=0.495 $Y=0.58 $X2=0.495
+ $Y2=0.98
r43 5 22 295.419 $w=1.8e-07 $l=7.6e-07 $layer=POLY_cond $X=0.495 $Y=2.75
+ $X2=0.495 $Y2=1.99
r44 2 20 4.86635 $w=4e-07 $l=3.5e-08 $layer=POLY_cond $X=0.605 $Y=1.79 $X2=0.605
+ $Y2=1.825
r45 1 16 4.86635 $w=4e-07 $l=3.5e-08 $layer=POLY_cond $X=0.605 $Y=1.18 $X2=0.605
+ $Y2=1.145
r46 1 2 84.8135 $w=4e-07 $l=6.1e-07 $layer=POLY_cond $X=0.605 $Y=1.18 $X2=0.605
+ $Y2=1.79
.ends

.subckt PM_SKY130_FD_SC_MS__DFSTP_1%CLK 3 7 8 11 13
c38 11 0 9.68091e-20 $X=1.465 $Y=1.385
c39 3 0 1.00526e-19 $X=1.48 $Y=2.31
r40 11 14 40.6903 $w=3.3e-07 $l=1.65e-07 $layer=POLY_cond $X=1.465 $Y=1.385
+ $X2=1.465 $Y2=1.55
r41 11 13 46.2115 $w=3.3e-07 $l=1.65e-07 $layer=POLY_cond $X=1.465 $Y=1.385
+ $X2=1.465 $Y2=1.22
r42 11 12 145.28 $w=1.7e-07 $l=1.7e-07 $layer=licon1_POLY $count=1 $X=1.465
+ $Y=1.385 $X2=1.465 $Y2=1.385
r43 8 12 6.69663 $w=3.68e-07 $l=2.15e-07 $layer=LI1_cond $X=1.68 $Y=1.365
+ $X2=1.465 $Y2=1.365
r44 7 13 154.24 $w=1.5e-07 $l=4.8e-07 $layer=POLY_cond $X=1.485 $Y=0.74
+ $X2=1.485 $Y2=1.22
r45 3 14 295.419 $w=1.8e-07 $l=7.6e-07 $layer=POLY_cond $X=1.48 $Y=2.31 $X2=1.48
+ $Y2=1.55
.ends

.subckt PM_SKY130_FD_SC_MS__DFSTP_1%A_398_74# 1 2 9 11 12 15 19 22 26 29 33 35
+ 36 37 38 39 41 42 48 52 53 56 57 58 60 61 62 64 65 66 70 71 72 74 75 76 78 79
+ 80 83 87 92 96
c279 79 0 4.6044e-20 $X=6.48 $Y=1.285
c280 78 0 8.25365e-20 $X=6.48 $Y=1.285
c281 70 0 1.09525e-19 $X=6.32 $Y=1.715
c282 62 0 5.35583e-20 $X=5.365 $Y=2.405
c283 15 0 8.43983e-20 $X=3.625 $Y=0.58
r284 87 88 30.474 $w=3.3e-07 $l=7.5e-08 $layer=POLY_cond $X=3.67 $Y=1.51
+ $X2=3.67 $Y2=1.435
r285 84 96 20.109 $w=3.3e-07 $l=1.15e-07 $layer=POLY_cond $X=7.095 $Y=2.185
+ $X2=7.21 $Y2=2.185
r286 83 85 5.14244 $w=3.44e-07 $l=1.45e-07 $layer=LI1_cond $X=7.095 $Y=2.162
+ $X2=7.24 $Y2=2.162
r287 83 84 145.28 $w=1.7e-07 $l=1.7e-07 $layer=licon1_POLY $count=1 $X=7.095
+ $Y=2.185 $X2=7.095 $Y2=2.185
r288 79 92 46.2115 $w=3.3e-07 $l=1.65e-07 $layer=POLY_cond $X=6.48 $Y=1.285
+ $X2=6.48 $Y2=1.12
r289 78 81 8.69073 $w=4.08e-07 $l=1.65e-07 $layer=LI1_cond $X=6.44 $Y=1.285
+ $X2=6.44 $Y2=1.45
r290 78 80 8.69073 $w=4.08e-07 $l=1.65e-07 $layer=LI1_cond $X=6.44 $Y=1.285
+ $X2=6.44 $Y2=1.12
r291 78 79 145.28 $w=1.7e-07 $l=1.7e-07 $layer=licon1_POLY $count=1 $X=6.48
+ $Y=1.285 $X2=6.48 $Y2=1.285
r292 74 85 4.87082 $w=1.7e-07 $l=1.92e-07 $layer=LI1_cond $X=7.24 $Y=1.97
+ $X2=7.24 $Y2=2.162
r293 73 74 100.797 $w=1.68e-07 $l=1.545e-06 $layer=LI1_cond $X=7.24 $Y=0.425
+ $X2=7.24 $Y2=1.97
r294 71 73 6.81649 $w=1.7e-07 $l=1.20208e-07 $layer=LI1_cond $X=7.155 $Y=0.34
+ $X2=7.24 $Y2=0.425
r295 71 72 48.9305 $w=1.68e-07 $l=7.5e-07 $layer=LI1_cond $X=7.155 $Y=0.34
+ $X2=6.405 $Y2=0.34
r296 70 81 17.2888 $w=1.68e-07 $l=2.65e-07 $layer=LI1_cond $X=6.32 $Y=1.715
+ $X2=6.32 $Y2=1.45
r297 67 72 6.81649 $w=1.7e-07 $l=1.20208e-07 $layer=LI1_cond $X=6.32 $Y=0.425
+ $X2=6.405 $Y2=0.34
r298 67 80 45.3422 $w=1.68e-07 $l=6.95e-07 $layer=LI1_cond $X=6.32 $Y=0.425
+ $X2=6.32 $Y2=1.12
r299 65 70 6.81649 $w=1.7e-07 $l=1.20208e-07 $layer=LI1_cond $X=6.235 $Y=1.8
+ $X2=6.32 $Y2=1.715
r300 65 66 16.9626 $w=1.68e-07 $l=2.6e-07 $layer=LI1_cond $X=6.235 $Y=1.8
+ $X2=5.975 $Y2=1.8
r301 63 66 6.81649 $w=1.7e-07 $l=1.20208e-07 $layer=LI1_cond $X=5.89 $Y=1.885
+ $X2=5.975 $Y2=1.8
r302 63 64 28.3797 $w=1.68e-07 $l=4.35e-07 $layer=LI1_cond $X=5.89 $Y=1.885
+ $X2=5.89 $Y2=2.32
r303 61 64 6.81649 $w=1.7e-07 $l=1.20208e-07 $layer=LI1_cond $X=5.805 $Y=2.405
+ $X2=5.89 $Y2=2.32
r304 61 62 28.7059 $w=1.68e-07 $l=4.4e-07 $layer=LI1_cond $X=5.805 $Y=2.405
+ $X2=5.365 $Y2=2.405
r305 59 62 6.81649 $w=1.7e-07 $l=1.20208e-07 $layer=LI1_cond $X=5.28 $Y=2.49
+ $X2=5.365 $Y2=2.405
r306 59 60 27.0749 $w=1.68e-07 $l=4.15e-07 $layer=LI1_cond $X=5.28 $Y=2.49
+ $X2=5.28 $Y2=2.905
r307 57 60 6.81649 $w=1.7e-07 $l=1.20208e-07 $layer=LI1_cond $X=5.195 $Y=2.99
+ $X2=5.28 $Y2=2.905
r308 57 58 40.7754 $w=1.68e-07 $l=6.25e-07 $layer=LI1_cond $X=5.195 $Y=2.99
+ $X2=4.57 $Y2=2.99
r309 56 58 6.81649 $w=1.7e-07 $l=1.20208e-07 $layer=LI1_cond $X=4.485 $Y=2.905
+ $X2=4.57 $Y2=2.99
r310 55 56 42.4064 $w=1.68e-07 $l=6.5e-07 $layer=LI1_cond $X=4.485 $Y=2.255
+ $X2=4.485 $Y2=2.905
r311 54 76 1.34256 $w=1.7e-07 $l=8.5e-08 $layer=LI1_cond $X=3.755 $Y=2.17
+ $X2=3.67 $Y2=2.17
r312 53 55 6.81649 $w=1.7e-07 $l=1.20208e-07 $layer=LI1_cond $X=4.4 $Y=2.17
+ $X2=4.485 $Y2=2.255
r313 53 54 42.0802 $w=1.68e-07 $l=6.45e-07 $layer=LI1_cond $X=4.4 $Y=2.17
+ $X2=3.755 $Y2=2.17
r314 51 76 5.16603 $w=1.7e-07 $l=8.5e-08 $layer=LI1_cond $X=3.67 $Y=2.255
+ $X2=3.67 $Y2=2.17
r315 51 52 42.4064 $w=1.68e-07 $l=6.5e-07 $layer=LI1_cond $X=3.67 $Y=2.255
+ $X2=3.67 $Y2=2.905
r316 49 87 15.7375 $w=3.3e-07 $l=9e-08 $layer=POLY_cond $X=3.67 $Y=1.6 $X2=3.67
+ $Y2=1.51
r317 48 49 145.28 $w=1.7e-07 $l=1.7e-07 $layer=licon1_POLY $count=1 $X=3.67
+ $Y=1.6 $X2=3.67 $Y2=1.6
r318 46 76 5.16603 $w=1.7e-07 $l=8.5e-08 $layer=LI1_cond $X=3.67 $Y=2.085
+ $X2=3.67 $Y2=2.17
r319 46 48 31.6417 $w=1.68e-07 $l=4.85e-07 $layer=LI1_cond $X=3.67 $Y=2.085
+ $X2=3.67 $Y2=1.6
r320 44 75 65.8931 $w=1.68e-07 $l=1.01e-06 $layer=LI1_cond $X=2.99 $Y=0.425
+ $X2=2.99 $Y2=1.435
r321 41 42 72.64 $w=1.7e-07 $l=3.4e-07 $layer=licon1_POLY $count=2 $X=2.95
+ $Y=1.6 $X2=2.95 $Y2=1.6
r322 39 75 6.82988 $w=2.43e-07 $l=1.22e-07 $layer=LI1_cond $X=2.952 $Y=1.557
+ $X2=2.952 $Y2=1.435
r323 39 41 2.02266 $w=2.43e-07 $l=4.3e-08 $layer=LI1_cond $X=2.952 $Y=1.557
+ $X2=2.952 $Y2=1.6
r324 37 52 6.81649 $w=1.7e-07 $l=1.20208e-07 $layer=LI1_cond $X=3.585 $Y=2.99
+ $X2=3.67 $Y2=2.905
r325 37 38 82.5294 $w=1.68e-07 $l=1.265e-06 $layer=LI1_cond $X=3.585 $Y=2.99
+ $X2=2.32 $Y2=2.99
r326 35 44 6.81649 $w=1.7e-07 $l=1.20208e-07 $layer=LI1_cond $X=2.905 $Y=0.34
+ $X2=2.99 $Y2=0.425
r327 35 36 39.7968 $w=1.68e-07 $l=6.1e-07 $layer=LI1_cond $X=2.905 $Y=0.34
+ $X2=2.295 $Y2=0.34
r328 31 38 7.14316 $w=1.7e-07 $l=1.62019e-07 $layer=LI1_cond $X=2.195 $Y=2.905
+ $X2=2.32 $Y2=2.99
r329 31 33 11.9854 $w=2.48e-07 $l=2.6e-07 $layer=LI1_cond $X=2.195 $Y=2.905
+ $X2=2.195 $Y2=2.645
r330 27 36 7.76618 $w=1.7e-07 $l=2.03101e-07 $layer=LI1_cond $X=2.13 $Y=0.425
+ $X2=2.295 $Y2=0.34
r331 27 29 3.14303 $w=3.28e-07 $l=9e-08 $layer=LI1_cond $X=2.13 $Y=0.425
+ $X2=2.13 $Y2=0.515
r332 25 42 59.4528 $w=3.3e-07 $l=3.4e-07 $layer=POLY_cond $X=2.95 $Y=1.94
+ $X2=2.95 $Y2=1.6
r333 25 26 35.6818 $w=3.3e-07 $l=1.65e-07 $layer=POLY_cond $X=2.95 $Y=1.94
+ $X2=2.95 $Y2=2.105
r334 24 42 2.62292 $w=3.3e-07 $l=1.5e-08 $layer=POLY_cond $X=2.95 $Y=1.585
+ $X2=2.95 $Y2=1.6
r335 20 96 16.9318 $w=1.8e-07 $l=1.65e-07 $layer=POLY_cond $X=7.21 $Y=2.35
+ $X2=7.21 $Y2=2.185
r336 20 22 155.484 $w=1.8e-07 $l=4e-07 $layer=POLY_cond $X=7.21 $Y=2.35 $X2=7.21
+ $Y2=2.75
r337 19 92 138.173 $w=1.5e-07 $l=4.3e-07 $layer=POLY_cond $X=6.525 $Y=0.69
+ $X2=6.525 $Y2=1.12
r338 15 88 438.415 $w=1.5e-07 $l=8.55e-07 $layer=POLY_cond $X=3.625 $Y=0.58
+ $X2=3.625 $Y2=1.435
r339 12 24 32.1775 $w=1.5e-07 $l=1.98997e-07 $layer=POLY_cond $X=3.115 $Y=1.51
+ $X2=2.95 $Y2=1.585
r340 11 87 21.2229 $w=1.5e-07 $l=1.65e-07 $layer=POLY_cond $X=3.505 $Y=1.51
+ $X2=3.67 $Y2=1.51
r341 11 12 199.979 $w=1.5e-07 $l=3.9e-07 $layer=POLY_cond $X=3.505 $Y=1.51
+ $X2=3.115 $Y2=1.51
r342 9 26 163.258 $w=1.8e-07 $l=4.2e-07 $layer=POLY_cond $X=2.97 $Y=2.525
+ $X2=2.97 $Y2=2.105
r343 2 33 600 $w=1.7e-07 $l=9.6013e-07 $layer=licon1_PDIFF $count=1 $X=2.02
+ $Y=1.75 $X2=2.155 $Y2=2.645
r344 1 29 91 $w=1.7e-07 $l=2.03286e-07 $layer=licon1_NDIFF $count=2 $X=1.99
+ $Y=0.37 $X2=2.13 $Y2=0.515
.ends

.subckt PM_SKY130_FD_SC_MS__DFSTP_1%A_760_395# 1 2 9 11 13 15 16 22 24 26 31 32
+ 38
c80 38 0 9.9779e-20 $X=4.31 $Y=1.065
c81 26 0 8.43983e-20 $X=4.43 $Y=1.065
c82 9 0 1.9505e-19 $X=3.89 $Y=2.525
r83 31 32 10.151 $w=2.83e-07 $l=2.05e-07 $layer=LI1_cond $X=4.882 $Y=2.525
+ $X2=4.882 $Y2=2.32
r84 27 38 23.3226 $w=2.48e-07 $l=1.2e-07 $layer=POLY_cond $X=4.43 $Y=1.065
+ $X2=4.31 $Y2=1.065
r85 26 29 13.0154 $w=3.89e-07 $l=4.15e-07 $layer=LI1_cond $X=4.43 $Y=0.872
+ $X2=4.845 $Y2=0.872
r86 26 27 145.28 $w=1.7e-07 $l=1.7e-07 $layer=licon1_POLY $count=1 $X=4.43
+ $Y=1.065 $X2=4.43 $Y2=1.065
r87 22 36 13.6845 $w=3.17e-07 $l=9e-08 $layer=POLY_cond $X=4.22 $Y=1.857
+ $X2=4.31 $Y2=1.857
r88 21 24 9.07524 $w=2.28e-07 $l=1.65e-07 $layer=LI1_cond $X=4.22 $Y=1.8
+ $X2=4.385 $Y2=1.8
r89 21 22 145.28 $w=1.7e-07 $l=1.7e-07 $layer=licon1_POLY $count=1 $X=4.22
+ $Y=1.8 $X2=4.22 $Y2=1.8
r90 18 32 26.4225 $w=1.68e-07 $l=4.05e-07 $layer=LI1_cond $X=4.825 $Y=1.915
+ $X2=4.825 $Y2=2.32
r91 16 18 6.81649 $w=1.7e-07 $l=1.20208e-07 $layer=LI1_cond $X=4.74 $Y=1.83
+ $X2=4.825 $Y2=1.915
r92 16 24 23.1604 $w=1.68e-07 $l=3.55e-07 $layer=LI1_cond $X=4.74 $Y=1.83
+ $X2=4.385 $Y2=1.83
r93 15 36 20.269 $w=1.5e-07 $l=2.67e-07 $layer=POLY_cond $X=4.31 $Y=1.59
+ $X2=4.31 $Y2=1.857
r94 14 38 14.534 $w=1.5e-07 $l=1.65e-07 $layer=POLY_cond $X=4.31 $Y=1.23
+ $X2=4.31 $Y2=1.065
r95 14 15 184.596 $w=1.5e-07 $l=3.6e-07 $layer=POLY_cond $X=4.31 $Y=1.23
+ $X2=4.31 $Y2=1.59
r96 11 38 57.3347 $w=2.48e-07 $l=3.68375e-07 $layer=POLY_cond $X=4.015 $Y=0.9
+ $X2=4.31 $Y2=1.065
r97 11 13 102.827 $w=1.5e-07 $l=3.2e-07 $layer=POLY_cond $X=4.015 $Y=0.9
+ $X2=4.015 $Y2=0.58
r98 7 22 50.1767 $w=3.17e-07 $l=4.4423e-07 $layer=POLY_cond $X=3.89 $Y=2.125
+ $X2=4.22 $Y2=1.857
r99 7 9 155.484 $w=1.8e-07 $l=4e-07 $layer=POLY_cond $X=3.89 $Y=2.125 $X2=3.89
+ $Y2=2.525
r100 2 31 600 $w=1.7e-07 $l=2.69165e-07 $layer=licon1_PDIFF $count=1 $X=4.805
+ $Y=2.315 $X2=4.94 $Y2=2.525
r101 1 29 182 $w=1.7e-07 $l=2.71109e-07 $layer=licon1_NDIFF $count=1 $X=4.705
+ $Y=0.59 $X2=4.845 $Y2=0.8
.ends

.subckt PM_SKY130_FD_SC_MS__DFSTP_1%A_604_74# 1 2 9 13 17 21 25 29 32 34 37 38
+ 40 41 44 45 47 48
c142 45 0 1.9505e-19 $X=3.247 $Y=2.295
c143 37 0 9.9779e-20 $X=4.97 $Y=1.38
c144 17 0 6.10492e-20 $X=5.91 $Y=2.205
c145 9 0 5.35583e-20 $X=4.715 $Y=2.525
r146 44 45 10.3582 $w=3.33e-07 $l=2.2e-07 $layer=LI1_cond $X=3.247 $Y=2.515
+ $X2=3.247 $Y2=2.295
r147 41 54 40.7132 $w=3.4e-07 $l=1.65e-07 $layer=POLY_cond $X=5.905 $Y=1.38
+ $X2=5.905 $Y2=1.545
r148 41 53 46.3065 $w=3.4e-07 $l=1.65e-07 $layer=POLY_cond $X=5.905 $Y=1.38
+ $X2=5.905 $Y2=1.215
r149 40 41 145.28 $w=1.7e-07 $l=1.7e-07 $layer=licon1_POLY $count=1 $X=5.9
+ $Y=1.38 $X2=5.9 $Y2=1.38
r150 38 51 13.6415 $w=3.18e-07 $l=9e-08 $layer=POLY_cond $X=4.97 $Y=1.447
+ $X2=5.06 $Y2=1.447
r151 38 49 38.6509 $w=3.18e-07 $l=2.55e-07 $layer=POLY_cond $X=4.97 $Y=1.447
+ $X2=4.715 $Y2=1.447
r152 37 48 7.72582 $w=3.28e-07 $l=1.65e-07 $layer=LI1_cond $X=4.97 $Y=1.38
+ $X2=4.805 $Y2=1.38
r153 37 40 32.4779 $w=3.28e-07 $l=9.3e-07 $layer=LI1_cond $X=4.97 $Y=1.38
+ $X2=5.9 $Y2=1.38
r154 37 38 145.28 $w=1.7e-07 $l=1.7e-07 $layer=licon1_POLY $count=1 $X=4.97
+ $Y=1.38 $X2=4.97 $Y2=1.38
r155 34 48 46.3209 $w=1.68e-07 $l=7.1e-07 $layer=LI1_cond $X=4.095 $Y=1.43
+ $X2=4.805 $Y2=1.43
r156 32 34 6.81649 $w=1.7e-07 $l=1.20208e-07 $layer=LI1_cond $X=4.01 $Y=1.345
+ $X2=4.095 $Y2=1.43
r157 31 32 21.2032 $w=1.68e-07 $l=3.25e-07 $layer=LI1_cond $X=4.01 $Y=1.02
+ $X2=4.01 $Y2=1.345
r158 30 47 2.76166 $w=1.7e-07 $l=1.65e-07 $layer=LI1_cond $X=3.575 $Y=0.935
+ $X2=3.41 $Y2=0.935
r159 29 31 6.81649 $w=1.7e-07 $l=1.20208e-07 $layer=LI1_cond $X=3.925 $Y=0.935
+ $X2=4.01 $Y2=1.02
r160 29 30 22.8342 $w=1.68e-07 $l=3.5e-07 $layer=LI1_cond $X=3.925 $Y=0.935
+ $X2=3.575 $Y2=0.935
r161 27 47 3.70735 $w=2.5e-07 $l=1.18427e-07 $layer=LI1_cond $X=3.33 $Y=1.02
+ $X2=3.41 $Y2=0.935
r162 27 45 83.1818 $w=1.68e-07 $l=1.275e-06 $layer=LI1_cond $X=3.33 $Y=1.02
+ $X2=3.33 $Y2=2.295
r163 23 47 3.70735 $w=2.5e-07 $l=8.5e-08 $layer=LI1_cond $X=3.41 $Y=0.85
+ $X2=3.41 $Y2=0.935
r164 23 25 9.42908 $w=3.28e-07 $l=2.7e-07 $layer=LI1_cond $X=3.41 $Y=0.85
+ $X2=3.41 $Y2=0.58
r165 21 53 269.202 $w=1.5e-07 $l=5.25e-07 $layer=POLY_cond $X=6 $Y=0.69 $X2=6
+ $Y2=1.215
r166 17 54 256.548 $w=1.8e-07 $l=6.6e-07 $layer=POLY_cond $X=5.91 $Y=2.205
+ $X2=5.91 $Y2=1.545
r167 11 51 20.3436 $w=1.5e-07 $l=2.32e-07 $layer=POLY_cond $X=5.06 $Y=1.215
+ $X2=5.06 $Y2=1.447
r168 11 13 212.798 $w=1.5e-07 $l=4.15e-07 $layer=POLY_cond $X=5.06 $Y=1.215
+ $X2=5.06 $Y2=0.8
r169 7 49 16.0701 $w=1.8e-07 $l=2.33e-07 $layer=POLY_cond $X=4.715 $Y=1.68
+ $X2=4.715 $Y2=1.447
r170 7 9 328.46 $w=1.8e-07 $l=8.45e-07 $layer=POLY_cond $X=4.715 $Y=1.68
+ $X2=4.715 $Y2=2.525
r171 2 44 600 $w=1.7e-07 $l=2.77489e-07 $layer=licon1_PDIFF $count=1 $X=3.06
+ $Y=2.315 $X2=3.245 $Y2=2.515
r172 1 25 182 $w=1.7e-07 $l=4.83735e-07 $layer=licon1_NDIFF $count=1 $X=3.02
+ $Y=0.37 $X2=3.41 $Y2=0.58
.ends

.subckt PM_SKY130_FD_SC_MS__DFSTP_1%SET_B 3 7 9 11 12 14 16 17 18 19 22 24 31 36
c125 36 0 7.26887e-20 $X=8.35 $Y=1.295
r126 38 39 96.8533 $w=1.7e-07 $l=2.55e-07 $layer=licon1_POLY $count=1 $X=8.35
+ $Y=1.975 $X2=8.35 $Y2=1.975
r127 36 39 23.7473 $w=3.28e-07 $l=6.8e-07 $layer=LI1_cond $X=8.35 $Y=1.295
+ $X2=8.35 $Y2=1.975
r128 29 31 30.6007 $w=3.3e-07 $l=1.75e-07 $layer=POLY_cond $X=5.245 $Y=1.985
+ $X2=5.42 $Y2=1.985
r129 29 30 145.28 $w=1.7e-07 $l=1.7e-07 $layer=licon1_POLY $count=1 $X=5.245
+ $Y=1.985 $X2=5.245 $Y2=1.985
r130 26 29 13.9889 $w=3.3e-07 $l=8e-08 $layer=POLY_cond $X=5.165 $Y=1.985
+ $X2=5.245 $Y2=1.985
r131 24 39 9.3 $w=1.7e-07 $l=1.7e-07 $layer=mcon $count=1 $X=8.4 $Y=2.035
+ $X2=8.4 $Y2=2.035
r132 22 30 9.60369 $w=3.28e-07 $l=2.75e-07 $layer=LI1_cond $X=5.52 $Y=1.985
+ $X2=5.245 $Y2=1.985
r133 21 22 9.3 $w=1.7e-07 $l=1.7e-07 $layer=mcon $count=1 $X=5.52 $Y=2.035
+ $X2=5.52 $Y2=2.035
r134 19 21 0.115467 $w=2.3e-07 $l=1.45e-07 $layer=MET1_cond $X=5.665 $Y=2.035
+ $X2=5.52 $Y2=2.035
r135 18 24 0.115467 $w=2.3e-07 $l=1.45e-07 $layer=MET1_cond $X=8.255 $Y=2.035
+ $X2=8.4 $Y2=2.035
r136 18 19 3.20544 $w=1.4e-07 $l=2.59e-06 $layer=MET1_cond $X=8.255 $Y=2.035
+ $X2=5.665 $Y2=2.035
r137 17 38 9.54844 $w=4.95e-07 $l=8.91852e-08 $layer=POLY_cond $X=8.267 $Y=1.893
+ $X2=8.252 $Y2=1.975
r138 16 36 96.8533 $w=1.7e-07 $l=2.55e-07 $layer=licon1_POLY $count=1 $X=8.35
+ $Y=1.295 $X2=8.35 $Y2=1.295
r139 16 17 55.7728 $w=4.95e-07 $l=5.16e-07 $layer=POLY_cond $X=8.267 $Y=1.377
+ $X2=8.267 $Y2=1.893
r140 12 38 45.3963 $w=4.1e-07 $l=3.29977e-07 $layer=POLY_cond $X=8.08 $Y=2.23
+ $X2=8.252 $Y2=1.975
r141 12 14 202.129 $w=1.8e-07 $l=5.2e-07 $layer=POLY_cond $X=8.08 $Y=2.23
+ $X2=8.08 $Y2=2.75
r142 9 16 82.838 $w=2.63e-07 $l=7.02544e-07 $layer=POLY_cond $X=7.815 $Y=0.865
+ $X2=8.267 $Y2=1.377
r143 9 11 91.58 $w=1.5e-07 $l=2.85e-07 $layer=POLY_cond $X=7.815 $Y=0.865
+ $X2=7.815 $Y2=0.58
r144 5 31 21.2229 $w=1.5e-07 $l=1.65e-07 $layer=POLY_cond $X=5.42 $Y=1.82
+ $X2=5.42 $Y2=1.985
r145 5 7 523.021 $w=1.5e-07 $l=1.02e-06 $layer=POLY_cond $X=5.42 $Y=1.82
+ $X2=5.42 $Y2=0.8
r146 1 26 16.9318 $w=1.8e-07 $l=1.65e-07 $layer=POLY_cond $X=5.165 $Y=2.15
+ $X2=5.165 $Y2=1.985
r147 1 3 145.766 $w=1.8e-07 $l=3.75e-07 $layer=POLY_cond $X=5.165 $Y=2.15
+ $X2=5.165 $Y2=2.525
.ends

.subckt PM_SKY130_FD_SC_MS__DFSTP_1%A_224_350# 1 2 9 13 16 17 19 20 23 27 29 34
+ 35 36 39 42 43 44 45 47 48 52 56 63
c183 35 0 8.25365e-20 $X=6.96 $Y=1.735
c184 27 0 1.2573e-19 $X=3.47 $Y=2.525
r185 62 63 8.47192 $w=3.38e-07 $l=1.65e-07 $layer=LI1_cond $X=1.255 $Y=1.89
+ $X2=1.42 $Y2=1.89
r186 59 62 6.6096 $w=3.38e-07 $l=1.95e-07 $layer=LI1_cond $X=1.06 $Y=1.89
+ $X2=1.255 $Y2=1.89
r187 56 58 17.8607 $w=4.58e-07 $l=4.95e-07 $layer=LI1_cond $X=1.205 $Y=0.515
+ $X2=1.205 $Y2=1.01
r188 52 53 145.28 $w=1.7e-07 $l=1.7e-07 $layer=licon1_POLY $count=1 $X=2.15
+ $Y=1.425 $X2=2.15 $Y2=1.425
r189 50 52 10.3021 $w=3.28e-07 $l=2.95e-07 $layer=LI1_cond $X=2.15 $Y=1.72
+ $X2=2.15 $Y2=1.425
r190 48 50 7.76618 $w=1.7e-07 $l=2.03101e-07 $layer=LI1_cond $X=1.985 $Y=1.805
+ $X2=2.15 $Y2=1.72
r191 48 63 36.861 $w=1.68e-07 $l=5.65e-07 $layer=LI1_cond $X=1.985 $Y=1.805
+ $X2=1.42 $Y2=1.805
r192 47 59 4.80115 $w=1.7e-07 $l=1.7e-07 $layer=LI1_cond $X=1.06 $Y=1.72
+ $X2=1.06 $Y2=1.89
r193 47 58 46.3209 $w=1.68e-07 $l=7.1e-07 $layer=LI1_cond $X=1.06 $Y=1.72
+ $X2=1.06 $Y2=1.01
r194 43 53 39.3438 $w=3.3e-07 $l=2.25e-07 $layer=POLY_cond $X=2.375 $Y=1.425
+ $X2=2.15 $Y2=1.425
r195 43 44 13.5877 $w=2.4e-07 $l=1.40584e-07 $layer=POLY_cond $X=2.375 $Y=1.425
+ $X2=2.45 $Y2=1.317
r196 41 53 22.732 $w=3.3e-07 $l=1.3e-07 $layer=POLY_cond $X=2.02 $Y=1.425
+ $X2=2.15 $Y2=1.425
r197 41 42 3.90195 $w=3.3e-07 $l=9e-08 $layer=POLY_cond $X=2.02 $Y=1.425
+ $X2=1.93 $Y2=1.425
r198 37 39 553.787 $w=1.5e-07 $l=1.08e-06 $layer=POLY_cond $X=7.035 $Y=1.66
+ $X2=7.035 $Y2=0.58
r199 35 37 26.9307 $w=1.5e-07 $l=1.06066e-07 $layer=POLY_cond $X=6.96 $Y=1.735
+ $X2=7.035 $Y2=1.66
r200 35 36 233.309 $w=1.5e-07 $l=4.55e-07 $layer=POLY_cond $X=6.96 $Y=1.735
+ $X2=6.505 $Y2=1.735
r201 32 34 239.056 $w=1.8e-07 $l=6.15e-07 $layer=POLY_cond $X=6.415 $Y=3.075
+ $X2=6.415 $Y2=2.46
r202 31 36 27.2212 $w=1.5e-07 $l=1.21861e-07 $layer=POLY_cond $X=6.415 $Y=1.81
+ $X2=6.505 $Y2=1.735
r203 31 34 252.661 $w=1.8e-07 $l=6.5e-07 $layer=POLY_cond $X=6.415 $Y=1.81
+ $X2=6.415 $Y2=2.46
r204 30 45 23.6879 $w=1.5e-07 $l=9e-08 $layer=POLY_cond $X=3.56 $Y=3.15 $X2=3.47
+ $Y2=3.15
r205 29 32 27.2212 $w=1.5e-07 $l=1.21861e-07 $layer=POLY_cond $X=6.325 $Y=3.15
+ $X2=6.415 $Y2=3.075
r206 29 30 1417.8 $w=1.5e-07 $l=2.765e-06 $layer=POLY_cond $X=6.325 $Y=3.15
+ $X2=3.56 $Y2=3.15
r207 25 45 2.7459 $w=1.8e-07 $l=7.5e-08 $layer=POLY_cond $X=3.47 $Y=3.075
+ $X2=3.47 $Y2=3.15
r208 25 27 213.79 $w=1.8e-07 $l=5.5e-07 $layer=POLY_cond $X=3.47 $Y=3.075
+ $X2=3.47 $Y2=2.525
r209 21 23 238.436 $w=1.5e-07 $l=4.65e-07 $layer=POLY_cond $X=2.945 $Y=1.045
+ $X2=2.945 $Y2=0.58
r210 19 45 23.6879 $w=1.5e-07 $l=9e-08 $layer=POLY_cond $X=3.38 $Y=3.15 $X2=3.47
+ $Y2=3.15
r211 19 20 438.415 $w=1.5e-07 $l=8.55e-07 $layer=POLY_cond $X=3.38 $Y=3.15
+ $X2=2.525 $Y2=3.15
r212 18 44 13.5877 $w=2.4e-07 $l=2.31482e-07 $layer=POLY_cond $X=2.525 $Y=1.12
+ $X2=2.45 $Y2=1.317
r213 17 21 26.9307 $w=1.5e-07 $l=1.06066e-07 $layer=POLY_cond $X=2.87 $Y=1.12
+ $X2=2.945 $Y2=1.045
r214 17 18 176.904 $w=1.5e-07 $l=3.45e-07 $layer=POLY_cond $X=2.87 $Y=1.12
+ $X2=2.525 $Y2=1.12
r215 16 20 26.9307 $w=1.5e-07 $l=1.06066e-07 $layer=POLY_cond $X=2.45 $Y=3.075
+ $X2=2.525 $Y2=3.15
r216 15 44 12.1617 $w=1.5e-07 $l=2.73e-07 $layer=POLY_cond $X=2.45 $Y=1.59
+ $X2=2.45 $Y2=1.317
r217 15 16 761.457 $w=1.5e-07 $l=1.485e-06 $layer=POLY_cond $X=2.45 $Y=1.59
+ $X2=2.45 $Y2=3.075
r218 11 42 34.7346 $w=1.65e-07 $l=1.65e-07 $layer=POLY_cond $X=1.93 $Y=1.59
+ $X2=1.93 $Y2=1.425
r219 11 13 279.871 $w=1.8e-07 $l=7.2e-07 $layer=POLY_cond $X=1.93 $Y=1.59
+ $X2=1.93 $Y2=2.31
r220 7 42 34.7346 $w=1.65e-07 $l=1.72337e-07 $layer=POLY_cond $X=1.915 $Y=1.26
+ $X2=1.93 $Y2=1.425
r221 7 9 266.638 $w=1.5e-07 $l=5.2e-07 $layer=POLY_cond $X=1.915 $Y=1.26
+ $X2=1.915 $Y2=0.74
r222 2 62 600 $w=1.7e-07 $l=2.01494e-07 $layer=licon1_PDIFF $count=1 $X=1.12
+ $Y=1.75 $X2=1.255 $Y2=1.895
r223 1 56 91 $w=1.7e-07 $l=2.05061e-07 $layer=licon1_NDIFF $count=2 $X=1.125
+ $Y=0.37 $X2=1.27 $Y2=0.515
.ends

.subckt PM_SKY130_FD_SC_MS__DFSTP_1%A_1470_48# 1 2 9 13 17 20 21 22 24 31 32 37
c83 20 0 1.66339e-19 $X=8.93 $Y=0.875
c84 9 0 7.26887e-20 $X=7.425 $Y=0.58
r85 31 32 8.46218 $w=3.28e-07 $l=1.65e-07 $layer=LI1_cond $X=9.28 $Y=2.815
+ $X2=9.28 $Y2=2.65
r86 26 32 94.5989 $w=1.68e-07 $l=1.45e-06 $layer=LI1_cond $X=9.36 $Y=1.2
+ $X2=9.36 $Y2=2.65
r87 22 26 12.9839 $w=2.49e-07 $l=3.52916e-07 $layer=LI1_cond $X=9.095 $Y=0.995
+ $X2=9.36 $Y2=1.2
r88 22 24 7.33373 $w=3.28e-07 $l=2.1e-07 $layer=LI1_cond $X=9.095 $Y=0.79
+ $X2=9.095 $Y2=0.58
r89 20 22 9.32073 $w=2.49e-07 $l=2.16852e-07 $layer=LI1_cond $X=8.93 $Y=0.875
+ $X2=9.095 $Y2=0.995
r90 20 21 78.2888 $w=1.68e-07 $l=1.2e-06 $layer=LI1_cond $X=8.93 $Y=0.875
+ $X2=7.73 $Y2=0.875
r91 18 37 2.62292 $w=3.3e-07 $l=1.5e-08 $layer=POLY_cond $X=7.615 $Y=1.39
+ $X2=7.63 $Y2=1.39
r92 18 34 33.2236 $w=3.3e-07 $l=1.9e-07 $layer=POLY_cond $X=7.615 $Y=1.39
+ $X2=7.425 $Y2=1.39
r93 17 18 145.28 $w=1.7e-07 $l=1.7e-07 $layer=licon1_POLY $count=1 $X=7.615
+ $Y=1.39 $X2=7.615 $Y2=1.39
r94 15 21 7.04737 $w=1.7e-07 $l=1.54771e-07 $layer=LI1_cond $X=7.612 $Y=0.96
+ $X2=7.73 $Y2=0.875
r95 15 17 21.0873 $w=2.33e-07 $l=4.3e-07 $layer=LI1_cond $X=7.612 $Y=0.96
+ $X2=7.612 $Y2=1.39
r96 11 37 16.9318 $w=1.8e-07 $l=1.65e-07 $layer=POLY_cond $X=7.63 $Y=1.555
+ $X2=7.63 $Y2=1.39
r97 11 13 464.508 $w=1.8e-07 $l=1.195e-06 $layer=POLY_cond $X=7.63 $Y=1.555
+ $X2=7.63 $Y2=2.75
r98 7 34 21.2229 $w=1.5e-07 $l=1.65e-07 $layer=POLY_cond $X=7.425 $Y=1.225
+ $X2=7.425 $Y2=1.39
r99 7 9 330.734 $w=1.5e-07 $l=6.45e-07 $layer=POLY_cond $X=7.425 $Y=1.225
+ $X2=7.425 $Y2=0.58
r100 2 31 600 $w=1.7e-07 $l=3.35783e-07 $layer=licon1_PDIFF $count=1 $X=9.145
+ $Y=2.54 $X2=9.28 $Y2=2.815
r101 1 24 182 $w=1.7e-07 $l=2.71109e-07 $layer=licon1_NDIFF $count=1 $X=8.955
+ $Y=0.37 $X2=9.095 $Y2=0.58
.ends

.subckt PM_SKY130_FD_SC_MS__DFSTP_1%A_1301_392# 1 2 3 11 14 18 20 24 26 28 30 33
+ 38 41 42 46 48 49 50 53 55 59 60 64 66 67 71 75 77
c173 75 0 5.57781e-20 $X=6.9 $Y=1.715
c174 67 0 5.27106e-21 $X=6.642 $Y=2.05
c175 66 0 4.6044e-20 $X=6.645 $Y=2.155
c176 60 0 1.66339e-19 $X=8.94 $Y=1.535
r177 69 71 5.5876 $w=3.28e-07 $l=1.6e-07 $layer=LI1_cond $X=6.74 $Y=0.76 $X2=6.9
+ $Y2=0.76
r178 66 67 4.6525 $w=3.33e-07 $l=1.05e-07 $layer=LI1_cond $X=6.642 $Y=2.155
+ $X2=6.642 $Y2=2.05
r179 63 64 96.8533 $w=1.7e-07 $l=2.55e-07 $layer=licon1_POLY $count=1 $X=8.94
+ $Y=2.215 $X2=8.94 $Y2=2.215
r180 60 80 46.3065 $w=3.4e-07 $l=1.65e-07 $layer=POLY_cond $X=8.945 $Y=1.535
+ $X2=8.945 $Y2=1.37
r181 59 63 23.7473 $w=3.28e-07 $l=6.8e-07 $layer=LI1_cond $X=8.94 $Y=1.535
+ $X2=8.94 $Y2=2.215
r182 59 60 96.8533 $w=1.7e-07 $l=2.55e-07 $layer=licon1_POLY $count=1 $X=8.94
+ $Y=1.535 $X2=8.94 $Y2=1.535
r183 57 63 3.31764 $w=3.28e-07 $l=9.5e-08 $layer=LI1_cond $X=8.94 $Y=2.31
+ $X2=8.94 $Y2=2.215
r184 56 77 8.61065 $w=1.7e-07 $l=1.65e-07 $layer=LI1_cond $X=8.47 $Y=2.395
+ $X2=8.305 $Y2=2.395
r185 55 57 7.76618 $w=1.7e-07 $l=2.03101e-07 $layer=LI1_cond $X=8.775 $Y=2.395
+ $X2=8.94 $Y2=2.31
r186 55 56 19.8984 $w=1.68e-07 $l=3.05e-07 $layer=LI1_cond $X=8.775 $Y=2.395
+ $X2=8.47 $Y2=2.395
r187 51 77 0.89609 $w=3.3e-07 $l=8.5e-08 $layer=LI1_cond $X=8.305 $Y=2.48
+ $X2=8.305 $Y2=2.395
r188 51 53 9.95292 $w=3.28e-07 $l=2.85e-07 $layer=LI1_cond $X=8.305 $Y=2.48
+ $X2=8.305 $Y2=2.765
r189 49 77 8.61065 $w=1.7e-07 $l=1.65e-07 $layer=LI1_cond $X=8.14 $Y=2.395
+ $X2=8.305 $Y2=2.395
r190 49 50 35.2299 $w=1.68e-07 $l=5.4e-07 $layer=LI1_cond $X=8.14 $Y=2.395
+ $X2=7.6 $Y2=2.395
r191 47 50 6.81649 $w=1.7e-07 $l=1.20208e-07 $layer=LI1_cond $X=7.515 $Y=2.48
+ $X2=7.6 $Y2=2.395
r192 47 48 9.45989 $w=1.68e-07 $l=1.45e-07 $layer=LI1_cond $X=7.515 $Y=2.48
+ $X2=7.515 $Y2=2.625
r193 46 75 0.716491 $w=1.7e-07 $l=8.5e-08 $layer=LI1_cond $X=6.9 $Y=1.63 $X2=6.9
+ $Y2=1.715
r194 45 71 4.62375 $w=1.7e-07 $l=1.65e-07 $layer=LI1_cond $X=6.9 $Y=0.925
+ $X2=6.9 $Y2=0.76
r195 45 46 45.9947 $w=1.68e-07 $l=7.05e-07 $layer=LI1_cond $X=6.9 $Y=0.925
+ $X2=6.9 $Y2=1.63
r196 42 44 5.68106 $w=3.53e-07 $l=1.75e-07 $layer=LI1_cond $X=6.81 $Y=2.802
+ $X2=6.985 $Y2=2.802
r197 41 48 7.97992 $w=3.55e-07 $l=2.15346e-07 $layer=LI1_cond $X=7.43 $Y=2.802
+ $X2=7.515 $Y2=2.625
r198 41 44 14.4461 $w=3.53e-07 $l=4.45e-07 $layer=LI1_cond $X=7.43 $Y=2.802
+ $X2=6.985 $Y2=2.802
r199 39 75 13.5701 $w=1.68e-07 $l=2.08e-07 $layer=LI1_cond $X=6.692 $Y=1.715
+ $X2=6.9 $Y2=1.715
r200 39 67 12.26 $w=2.33e-07 $l=2.5e-07 $layer=LI1_cond $X=6.692 $Y=1.8
+ $X2=6.692 $Y2=2.05
r201 38 42 6.82394 $w=3.55e-07 $l=2.47113e-07 $layer=LI1_cond $X=6.642 $Y=2.625
+ $X2=6.81 $Y2=2.802
r202 37 66 2.13288 $w=3.33e-07 $l=6.2e-08 $layer=LI1_cond $X=6.642 $Y=2.217
+ $X2=6.642 $Y2=2.155
r203 37 38 14.0357 $w=3.33e-07 $l=4.08e-07 $layer=LI1_cond $X=6.642 $Y=2.217
+ $X2=6.642 $Y2=2.625
r204 32 64 2.54577 $w=3.4e-07 $l=1.5e-08 $layer=POLY_cond $X=8.945 $Y=2.23
+ $X2=8.945 $Y2=2.215
r205 32 33 38.1674 $w=3.4e-07 $l=1.5e-07 $layer=POLY_cond $X=8.96 $Y=2.23
+ $X2=8.96 $Y2=2.38
r206 29 64 46.6725 $w=3.4e-07 $l=2.75e-07 $layer=POLY_cond $X=8.945 $Y=1.94
+ $X2=8.945 $Y2=2.215
r207 29 30 9.89174 $w=3.4e-07 $l=7.5e-08 $layer=POLY_cond $X=8.945 $Y=1.94
+ $X2=8.945 $Y2=1.865
r208 26 34 79.4787 $w=1.5e-07 $l=1.55e-07 $layer=POLY_cond $X=10.025 $Y=1.865
+ $X2=9.87 $Y2=1.865
r209 26 28 132.55 $w=1.8e-07 $l=4.95e-07 $layer=POLY_cond $X=10.025 $Y=1.94
+ $X2=10.025 $Y2=2.435
r210 22 34 2.83073 $w=1.5e-07 $l=7.5e-08 $layer=POLY_cond $X=9.87 $Y=1.79
+ $X2=9.87 $Y2=1.865
r211 22 24 587.117 $w=1.5e-07 $l=1.145e-06 $layer=POLY_cond $X=9.87 $Y=1.79
+ $X2=9.87 $Y2=0.645
r212 21 30 17.3855 $w=1.5e-07 $l=1.7e-07 $layer=POLY_cond $X=9.115 $Y=1.865
+ $X2=8.945 $Y2=1.865
r213 20 34 38.4574 $w=1.5e-07 $l=7.5e-08 $layer=POLY_cond $X=9.795 $Y=1.865
+ $X2=9.87 $Y2=1.865
r214 20 21 348.681 $w=1.5e-07 $l=6.8e-07 $layer=POLY_cond $X=9.795 $Y=1.865
+ $X2=9.115 $Y2=1.865
r215 18 33 143.823 $w=1.8e-07 $l=3.7e-07 $layer=POLY_cond $X=9.055 $Y=2.75
+ $X2=9.055 $Y2=2.38
r216 14 80 405.085 $w=1.5e-07 $l=7.9e-07 $layer=POLY_cond $X=8.88 $Y=0.58
+ $X2=8.88 $Y2=1.37
r217 11 30 9.89174 $w=3.4e-07 $l=7.5e-08 $layer=POLY_cond $X=8.945 $Y=1.79
+ $X2=8.945 $Y2=1.865
r218 10 60 0.848592 $w=3.4e-07 $l=5e-09 $layer=POLY_cond $X=8.945 $Y=1.54
+ $X2=8.945 $Y2=1.535
r219 10 11 42.4296 $w=3.4e-07 $l=2.5e-07 $layer=POLY_cond $X=8.945 $Y=1.54
+ $X2=8.945 $Y2=1.79
r220 3 53 600 $w=1.7e-07 $l=2.84605e-07 $layer=licon1_PDIFF $count=1 $X=8.17
+ $Y=2.54 $X2=8.305 $Y2=2.765
r221 2 66 300 $w=1.7e-07 $l=2.55588e-07 $layer=licon1_PDIFF $count=2 $X=6.505
+ $Y=1.96 $X2=6.645 $Y2=2.155
r222 2 44 300 $w=1.7e-07 $l=1.08886e-06 $layer=licon1_PDIFF $count=2 $X=6.505
+ $Y=1.96 $X2=6.985 $Y2=2.835
r223 1 69 182 $w=1.7e-07 $l=4.54643e-07 $layer=licon1_NDIFF $count=1 $X=6.6
+ $Y=0.37 $X2=6.74 $Y2=0.76
.ends

.subckt PM_SKY130_FD_SC_MS__DFSTP_1%A_1902_74# 1 2 7 9 12 16 19 22 26 29 30 34
r56 33 34 16.6118 $w=3.3e-07 $l=9.5e-08 $layer=POLY_cond $X=10.45 $Y=1.385
+ $X2=10.545 $Y2=1.385
r57 27 33 17.4861 $w=3.3e-07 $l=1e-07 $layer=POLY_cond $X=10.35 $Y=1.385
+ $X2=10.45 $Y2=1.385
r58 26 27 145.28 $w=1.7e-07 $l=1.7e-07 $layer=licon1_POLY $count=1 $X=10.35
+ $Y=1.385 $X2=10.35 $Y2=1.385
r59 24 30 0.466467 $w=3.3e-07 $l=1.65e-07 $layer=LI1_cond $X=9.965 $Y=1.385
+ $X2=9.8 $Y2=1.385
r60 24 26 13.4452 $w=3.28e-07 $l=3.85e-07 $layer=LI1_cond $X=9.965 $Y=1.385
+ $X2=10.35 $Y2=1.385
r61 20 30 6.31733 $w=2.57e-07 $l=1.65e-07 $layer=LI1_cond $X=9.8 $Y=1.55 $X2=9.8
+ $Y2=1.385
r62 20 22 21.3027 $w=3.28e-07 $l=6.1e-07 $layer=LI1_cond $X=9.8 $Y=1.55 $X2=9.8
+ $Y2=2.16
r63 19 30 6.31733 $w=2.57e-07 $l=1.98167e-07 $layer=LI1_cond $X=9.727 $Y=1.22
+ $X2=9.8 $Y2=1.385
r64 19 29 21.5823 $w=1.83e-07 $l=3.6e-07 $layer=LI1_cond $X=9.727 $Y=1.22
+ $X2=9.727 $Y2=0.86
r65 14 29 7.96936 $w=3.28e-07 $l=1.65e-07 $layer=LI1_cond $X=9.655 $Y=0.695
+ $X2=9.655 $Y2=0.86
r66 14 16 3.14303 $w=3.28e-07 $l=9e-08 $layer=LI1_cond $X=9.655 $Y=0.695
+ $X2=9.655 $Y2=0.605
r67 10 34 16.9318 $w=1.8e-07 $l=1.65e-07 $layer=POLY_cond $X=10.545 $Y=1.55
+ $X2=10.545 $Y2=1.385
r68 10 12 330.403 $w=1.8e-07 $l=8.5e-07 $layer=POLY_cond $X=10.545 $Y=1.55
+ $X2=10.545 $Y2=2.4
r69 7 33 21.2229 $w=1.5e-07 $l=1.65e-07 $layer=POLY_cond $X=10.45 $Y=1.22
+ $X2=10.45 $Y2=1.385
r70 7 9 154.24 $w=1.5e-07 $l=4.8e-07 $layer=POLY_cond $X=10.45 $Y=1.22 $X2=10.45
+ $Y2=0.74
r71 2 22 300 $w=1.7e-07 $l=1.97864e-07 $layer=licon1_PDIFF $count=2 $X=9.675
+ $Y=2.015 $X2=9.8 $Y2=2.16
r72 1 16 182 $w=1.7e-07 $l=2.98831e-07 $layer=licon1_NDIFF $count=1 $X=9.51
+ $Y=0.37 $X2=9.655 $Y2=0.605
.ends

.subckt PM_SKY130_FD_SC_MS__DFSTP_1%A_27_74# 1 2 3 4 15 18 21 23 25 28 29 30 31
+ 36
c67 25 0 1.2573e-19 $X=2.485 $Y=2.145
r68 36 38 8.65635 $w=2.48e-07 $l=1.65e-07 $layer=LI1_cond $X=2.61 $Y=0.76
+ $X2=2.61 $Y2=0.925
r69 31 33 11.0909 $w=1.68e-07 $l=1.7e-07 $layer=LI1_cond $X=1.675 $Y=2.145
+ $X2=1.675 $Y2=2.315
r70 28 38 71.9325 $w=1.73e-07 $l=1.135e-06 $layer=LI1_cond $X=2.572 $Y=2.06
+ $X2=2.572 $Y2=0.925
r71 26 31 0.716491 $w=1.7e-07 $l=8.5e-08 $layer=LI1_cond $X=1.76 $Y=2.145
+ $X2=1.675 $Y2=2.145
r72 25 41 13.515 $w=3.34e-07 $l=4.64047e-07 $layer=LI1_cond $X=2.485 $Y=2.145
+ $X2=2.697 $Y2=2.515
r73 25 28 5.85659 $w=3.34e-07 $l=1.22327e-07 $layer=LI1_cond $X=2.485 $Y=2.145
+ $X2=2.572 $Y2=2.06
r74 25 26 47.2995 $w=1.68e-07 $l=7.25e-07 $layer=LI1_cond $X=2.485 $Y=2.145
+ $X2=1.76 $Y2=2.145
r75 24 30 2.11342 $w=1.7e-07 $l=1.25e-07 $layer=LI1_cond $X=0.355 $Y=2.315
+ $X2=0.23 $Y2=2.315
r76 23 33 0.716491 $w=1.7e-07 $l=8.5e-08 $layer=LI1_cond $X=1.59 $Y=2.315
+ $X2=1.675 $Y2=2.315
r77 23 24 80.5722 $w=1.68e-07 $l=1.235e-06 $layer=LI1_cond $X=1.59 $Y=2.315
+ $X2=0.355 $Y2=2.315
r78 19 30 4.3182 $w=2.1e-07 $l=8.5e-08 $layer=LI1_cond $X=0.23 $Y=2.4 $X2=0.23
+ $Y2=2.315
r79 19 21 16.1342 $w=2.48e-07 $l=3.5e-07 $layer=LI1_cond $X=0.23 $Y=2.4 $X2=0.23
+ $Y2=2.75
r80 18 30 4.3182 $w=2.1e-07 $l=1.03078e-07 $layer=LI1_cond $X=0.19 $Y=2.23
+ $X2=0.23 $Y2=2.315
r81 18 29 92.6417 $w=1.68e-07 $l=1.42e-06 $layer=LI1_cond $X=0.19 $Y=2.23
+ $X2=0.19 $Y2=0.81
r82 13 29 7.14225 $w=2.58e-07 $l=1.3e-07 $layer=LI1_cond $X=0.235 $Y=0.68
+ $X2=0.235 $Y2=0.81
r83 13 15 4.43247 $w=2.58e-07 $l=1e-07 $layer=LI1_cond $X=0.235 $Y=0.68
+ $X2=0.235 $Y2=0.58
r84 4 41 600 $w=1.7e-07 $l=2.62678e-07 $layer=licon1_PDIFF $count=1 $X=2.6
+ $Y=2.315 $X2=2.745 $Y2=2.515