* File: sky130_fd_sc_ms__nor4b_4.pex.spice
* Created: Wed Sep  2 12:17:10 2020
* Program "Calibre xRC"
* Version "v2018.4_34.26"
* Nominal Temperature: 27C
* Circuit Temperature: 27C
* 
.subckt PM_SKY130_FD_SC_MS__NOR4B_4%D_N 1 3 7 9 11 12 13 18
r35 20 21 96.8533 $w=1.7e-07 $l=2.55e-07 $layer=licon1_POLY $count=1 $X=0.385
+ $Y=1.765 $X2=0.385 $Y2=1.765
r36 17 20 47.5014 $w=6.9e-07 $l=7.995e-07 $layer=POLY_cond $X=0.385 $Y=1.085
+ $X2=0.645 $Y2=1.765
r37 17 18 96.8533 $w=1.7e-07 $l=2.55e-07 $layer=licon1_POLY $count=1 $X=0.385
+ $Y=1.085 $X2=0.385 $Y2=1.085
r38 13 21 2.71163 $w=4.23e-07 $l=1e-07 $layer=LI1_cond $X=0.337 $Y=1.665
+ $X2=0.337 $Y2=1.765
r39 12 13 10.033 $w=4.23e-07 $l=3.7e-07 $layer=LI1_cond $X=0.337 $Y=1.295
+ $X2=0.337 $Y2=1.665
r40 12 18 5.69442 $w=4.23e-07 $l=2.1e-07 $layer=LI1_cond $X=0.337 $Y=1.295
+ $X2=0.337 $Y2=1.085
r41 9 17 42.4449 $w=6.9e-07 $l=6.58103e-07 $layer=POLY_cond $X=0.995 $Y=1.185
+ $X2=0.385 $Y2=1.085
r42 9 11 142.993 $w=1.5e-07 $l=4.45e-07 $layer=POLY_cond $X=0.995 $Y=1.185
+ $X2=0.995 $Y2=0.74
r43 1 20 38.4626 $w=6.9e-07 $l=3.65103e-07 $layer=POLY_cond $X=0.955 $Y=1.885
+ $X2=0.645 $Y2=1.765
r44 1 7 254.605 $w=1.8e-07 $l=6.55e-07 $layer=POLY_cond $X=0.955 $Y=1.885
+ $X2=0.955 $Y2=2.54
r45 1 3 237.113 $w=1.8e-07 $l=6.1e-07 $layer=POLY_cond $X=0.505 $Y=1.93
+ $X2=0.505 $Y2=2.54
.ends

.subckt PM_SKY130_FD_SC_MS__NOR4B_4%A_47_88# 1 2 9 13 15 17 18 20 23 27 29 31 32
+ 33 34 36 37 43 45 46 54 57 60
c120 34 0 1.16661e-20 $X=3.365 $Y=1.725
c121 27 0 3.90676e-20 $X=2.88 $Y=0.74
c122 23 0 1.09607e-20 $X=2.45 $Y=0.74
r123 68 69 4.24937 $w=3.97e-07 $l=3.5e-08 $layer=POLY_cond $X=2.88 $Y=1.522
+ $X2=2.915 $Y2=1.522
r124 67 68 52.2066 $w=3.97e-07 $l=4.3e-07 $layer=POLY_cond $X=2.45 $Y=1.522
+ $X2=2.88 $Y2=1.522
r125 66 67 4.24937 $w=3.97e-07 $l=3.5e-08 $layer=POLY_cond $X=2.415 $Y=1.522
+ $X2=2.45 $Y2=1.522
r126 63 64 1.82116 $w=3.97e-07 $l=1.5e-08 $layer=POLY_cond $X=1.95 $Y=1.522
+ $X2=1.965 $Y2=1.522
r127 55 66 30.3526 $w=3.97e-07 $l=2.5e-07 $layer=POLY_cond $X=2.165 $Y=1.522
+ $X2=2.415 $Y2=1.522
r128 55 64 24.2821 $w=3.97e-07 $l=2e-07 $layer=POLY_cond $X=2.165 $Y=1.522
+ $X2=1.965 $Y2=1.522
r129 54 55 96.8533 $w=1.7e-07 $l=2.55e-07 $layer=licon1_POLY $count=1 $X=2.165
+ $Y=1.485 $X2=2.165 $Y2=1.485
r130 52 63 56.4559 $w=3.97e-07 $l=4.65e-07 $layer=POLY_cond $X=1.485 $Y=1.522
+ $X2=1.95 $Y2=1.522
r131 52 61 5.46348 $w=3.97e-07 $l=4.5e-08 $layer=POLY_cond $X=1.485 $Y=1.522
+ $X2=1.44 $Y2=1.522
r132 51 54 23.7473 $w=3.28e-07 $l=6.8e-07 $layer=LI1_cond $X=1.485 $Y=1.485
+ $X2=2.165 $Y2=1.485
r133 51 52 96.8533 $w=1.7e-07 $l=2.55e-07 $layer=licon1_POLY $count=1 $X=1.485
+ $Y=1.485 $X2=1.485 $Y2=1.485
r134 49 60 0.89609 $w=3.3e-07 $l=8.5e-08 $layer=LI1_cond $X=0.89 $Y=1.485
+ $X2=0.805 $Y2=1.485
r135 49 51 20.7789 $w=3.28e-07 $l=5.95e-07 $layer=LI1_cond $X=0.89 $Y=1.485
+ $X2=1.485 $Y2=1.485
r136 47 60 8.61065 $w=1.7e-07 $l=1.65e-07 $layer=LI1_cond $X=0.805 $Y=1.65
+ $X2=0.805 $Y2=1.485
r137 47 57 29.3583 $w=1.68e-07 $l=4.5e-07 $layer=LI1_cond $X=0.805 $Y=1.65
+ $X2=0.805 $Y2=2.1
r138 46 60 8.61065 $w=1.7e-07 $l=1.65e-07 $layer=LI1_cond $X=0.805 $Y=1.32
+ $X2=0.805 $Y2=1.485
r139 45 59 5.12568 $w=1.7e-07 $l=1.65e-07 $layer=LI1_cond $X=0.805 $Y=0.75
+ $X2=0.805 $Y2=0.585
r140 45 46 37.1872 $w=1.68e-07 $l=5.7e-07 $layer=LI1_cond $X=0.805 $Y=0.75
+ $X2=0.805 $Y2=1.32
r141 43 57 8.30336 $w=3.28e-07 $l=1.65e-07 $layer=LI1_cond $X=0.73 $Y=2.265
+ $X2=0.73 $Y2=2.1
r142 37 59 2.6405 $w=3.3e-07 $l=8.5e-08 $layer=LI1_cond $X=0.72 $Y=0.585
+ $X2=0.805 $Y2=0.585
r143 37 39 9.7783 $w=3.28e-07 $l=2.8e-07 $layer=LI1_cond $X=0.72 $Y=0.585
+ $X2=0.44 $Y2=0.585
r144 34 36 180.75 $w=1.8e-07 $l=6.75e-07 $layer=POLY_cond $X=3.365 $Y=1.725
+ $X2=3.365 $Y2=2.4
r145 33 69 30.4212 $w=3.97e-07 $l=1.67045e-07 $layer=POLY_cond $X=3.005 $Y=1.65
+ $X2=2.915 $Y2=1.522
r146 32 34 27.2212 $w=1.5e-07 $l=1.21861e-07 $layer=POLY_cond $X=3.275 $Y=1.65
+ $X2=3.365 $Y2=1.725
r147 32 33 138.447 $w=1.5e-07 $l=2.7e-07 $layer=POLY_cond $X=3.275 $Y=1.65
+ $X2=3.005 $Y2=1.65
r148 29 69 21.283 $w=1.8e-07 $l=2.03e-07 $layer=POLY_cond $X=2.915 $Y=1.725
+ $X2=2.915 $Y2=1.522
r149 29 31 180.75 $w=1.8e-07 $l=6.75e-07 $layer=POLY_cond $X=2.915 $Y=1.725
+ $X2=2.915 $Y2=2.4
r150 25 68 25.678 $w=1.5e-07 $l=2.02e-07 $layer=POLY_cond $X=2.88 $Y=1.32
+ $X2=2.88 $Y2=1.522
r151 25 27 297.404 $w=1.5e-07 $l=5.8e-07 $layer=POLY_cond $X=2.88 $Y=1.32
+ $X2=2.88 $Y2=0.74
r152 21 67 25.678 $w=1.5e-07 $l=2.02e-07 $layer=POLY_cond $X=2.45 $Y=1.32
+ $X2=2.45 $Y2=1.522
r153 21 23 297.404 $w=1.5e-07 $l=5.8e-07 $layer=POLY_cond $X=2.45 $Y=1.32
+ $X2=2.45 $Y2=0.74
r154 18 66 21.283 $w=1.8e-07 $l=2.03e-07 $layer=POLY_cond $X=2.415 $Y=1.725
+ $X2=2.415 $Y2=1.522
r155 18 20 180.75 $w=1.8e-07 $l=6.75e-07 $layer=POLY_cond $X=2.415 $Y=1.725
+ $X2=2.415 $Y2=2.4
r156 15 64 21.283 $w=1.8e-07 $l=2.03e-07 $layer=POLY_cond $X=1.965 $Y=1.725
+ $X2=1.965 $Y2=1.522
r157 15 17 180.75 $w=1.8e-07 $l=6.75e-07 $layer=POLY_cond $X=1.965 $Y=1.725
+ $X2=1.965 $Y2=2.4
r158 11 63 25.678 $w=1.5e-07 $l=2.02e-07 $layer=POLY_cond $X=1.95 $Y=1.32
+ $X2=1.95 $Y2=1.522
r159 11 13 297.404 $w=1.5e-07 $l=5.8e-07 $layer=POLY_cond $X=1.95 $Y=1.32
+ $X2=1.95 $Y2=0.74
r160 7 61 25.678 $w=1.5e-07 $l=2.02e-07 $layer=POLY_cond $X=1.44 $Y=1.32
+ $X2=1.44 $Y2=1.522
r161 7 9 297.404 $w=1.5e-07 $l=5.8e-07 $layer=POLY_cond $X=1.44 $Y=1.32 $X2=1.44
+ $Y2=0.74
r162 2 43 300 $w=1.7e-07 $l=2.01494e-07 $layer=licon1_PDIFF $count=2 $X=0.595
+ $Y=2.12 $X2=0.73 $Y2=2.265
r163 1 59 182 $w=1.7e-07 $l=6.13229e-07 $layer=licon1_NDIFF $count=1 $X=0.235
+ $Y=0.44 $X2=0.78 $Y2=0.585
r164 1 39 182 $w=1.7e-07 $l=2.67862e-07 $layer=licon1_NDIFF $count=1 $X=0.235
+ $Y=0.44 $X2=0.44 $Y2=0.585
.ends

.subckt PM_SKY130_FD_SC_MS__NOR4B_4%C 1 3 5 8 10 12 15 19 21 23 24 26 28 31 33
+ 34 35 36 41 52
c96 31 0 7.36839e-20 $X=5.315 $Y=2.4
c97 26 0 1.8401e-19 $X=5.285 $Y=1.185
c98 19 0 6.8274e-20 $X=4.84 $Y=2.4
c99 15 0 8.94367e-20 $X=4.315 $Y=2.4
c100 1 0 5.58611e-20 $X=3.45 $Y=1.185
r101 48 50 8.10651 $w=4.95e-07 $l=7.5e-08 $layer=POLY_cond $X=4.765 $Y=1.432
+ $X2=4.84 $Y2=1.432
r102 48 49 72.64 $w=1.7e-07 $l=3.4e-07 $layer=licon1_POLY $count=2 $X=4.765
+ $Y=1.515 $X2=4.765 $Y2=1.515
r103 46 48 48.639 $w=4.95e-07 $l=4.5e-07 $layer=POLY_cond $X=4.315 $Y=1.432
+ $X2=4.765 $Y2=1.432
r104 44 46 24.86 $w=4.95e-07 $l=2.3e-07 $layer=POLY_cond $X=4.085 $Y=1.432
+ $X2=4.315 $Y2=1.432
r105 44 45 145.28 $w=1.7e-07 $l=1.7e-07 $layer=licon1_POLY $count=1 $X=4.085
+ $Y=1.515 $X2=4.085 $Y2=1.515
r106 40 41 38.2889 $w=4.95e-07 $l=9e-08 $layer=POLY_cond $X=3.815 $Y=1.432
+ $X2=3.725 $Y2=1.432
r107 36 49 7.37028 $w=4.28e-07 $l=2.75e-07 $layer=LI1_cond $X=5.04 $Y=1.565
+ $X2=4.765 $Y2=1.565
r108 35 49 5.4942 $w=4.28e-07 $l=2.05e-07 $layer=LI1_cond $X=4.56 $Y=1.565
+ $X2=4.765 $Y2=1.565
r109 35 45 12.7305 $w=4.28e-07 $l=4.75e-07 $layer=LI1_cond $X=4.56 $Y=1.565
+ $X2=4.085 $Y2=1.565
r110 34 45 0.134005 $w=4.28e-07 $l=5e-09 $layer=LI1_cond $X=4.08 $Y=1.565
+ $X2=4.085 $Y2=1.565
r111 29 33 18.8402 $w=1.65e-07 $l=7.88987e-08 $layer=POLY_cond $X=5.315 $Y=1.335
+ $X2=5.307 $Y2=1.26
r112 29 31 413.976 $w=1.8e-07 $l=1.065e-06 $layer=POLY_cond $X=5.315 $Y=1.335
+ $X2=5.315 $Y2=2.4
r113 26 33 18.8402 $w=1.65e-07 $l=8.52936e-08 $layer=POLY_cond $X=5.285 $Y=1.185
+ $X2=5.307 $Y2=1.26
r114 26 28 142.993 $w=1.5e-07 $l=4.45e-07 $layer=POLY_cond $X=5.285 $Y=1.185
+ $X2=5.285 $Y2=0.74
r115 24 33 6.66866 $w=1.5e-07 $l=9.7e-08 $layer=POLY_cond $X=5.21 $Y=1.26
+ $X2=5.307 $Y2=1.26
r116 24 52 143.574 $w=1.5e-07 $l=2.8e-07 $layer=POLY_cond $X=5.21 $Y=1.26
+ $X2=4.93 $Y2=1.26
r117 21 52 36.6676 $w=4.95e-07 $l=7.5e-08 $layer=POLY_cond $X=4.855 $Y=1.432
+ $X2=4.93 $Y2=1.432
r118 21 50 1.6213 $w=4.95e-07 $l=1.5e-08 $layer=POLY_cond $X=4.855 $Y=1.432
+ $X2=4.84 $Y2=1.432
r119 21 23 142.993 $w=1.5e-07 $l=4.45e-07 $layer=POLY_cond $X=4.855 $Y=1.185
+ $X2=4.855 $Y2=0.74
r120 17 50 26.6159 $w=1.8e-07 $l=2.48e-07 $layer=POLY_cond $X=4.84 $Y=1.68
+ $X2=4.84 $Y2=1.432
r121 17 19 279.871 $w=1.8e-07 $l=7.2e-07 $layer=POLY_cond $X=4.84 $Y=1.68
+ $X2=4.84 $Y2=2.4
r122 13 46 26.6159 $w=1.8e-07 $l=2.48e-07 $layer=POLY_cond $X=4.315 $Y=1.68
+ $X2=4.315 $Y2=1.432
r123 13 15 279.871 $w=1.8e-07 $l=7.2e-07 $layer=POLY_cond $X=4.315 $Y=1.68
+ $X2=4.315 $Y2=2.4
r124 10 44 22.1578 $w=4.95e-07 $l=2.05e-07 $layer=POLY_cond $X=3.88 $Y=1.432
+ $X2=4.085 $Y2=1.432
r125 10 40 7.02564 $w=4.95e-07 $l=6.5e-08 $layer=POLY_cond $X=3.88 $Y=1.432
+ $X2=3.815 $Y2=1.432
r126 10 12 142.993 $w=1.5e-07 $l=4.45e-07 $layer=POLY_cond $X=3.88 $Y=1.185
+ $X2=3.88 $Y2=0.74
r127 6 40 26.6159 $w=1.8e-07 $l=2.48e-07 $layer=POLY_cond $X=3.815 $Y=1.68
+ $X2=3.815 $Y2=1.432
r128 6 8 279.871 $w=1.8e-07 $l=7.2e-07 $layer=POLY_cond $X=3.815 $Y=1.68
+ $X2=3.815 $Y2=2.4
r129 5 41 102.553 $w=1.5e-07 $l=2e-07 $layer=POLY_cond $X=3.525 $Y=1.26
+ $X2=3.725 $Y2=1.26
r130 1 5 26.9307 $w=1.5e-07 $l=1.06066e-07 $layer=POLY_cond $X=3.45 $Y=1.185
+ $X2=3.525 $Y2=1.26
r131 1 3 142.993 $w=1.5e-07 $l=4.45e-07 $layer=POLY_cond $X=3.45 $Y=1.185
+ $X2=3.45 $Y2=0.74
.ends

.subckt PM_SKY130_FD_SC_MS__NOR4B_4%B 3 7 11 15 19 23 27 31 33 34 35 36 55
c94 36 0 1.743e-19 $X=7.44 $Y=1.665
c95 23 0 8.50164e-20 $X=7.325 $Y=2.4
r96 54 55 25.3549 $w=3.3e-07 $l=1.45e-07 $layer=POLY_cond $X=7.63 $Y=1.515
+ $X2=7.775 $Y2=1.515
r97 53 54 53.3327 $w=3.3e-07 $l=3.05e-07 $layer=POLY_cond $X=7.325 $Y=1.515
+ $X2=7.63 $Y2=1.515
r98 51 53 2.62292 $w=3.3e-07 $l=1.5e-08 $layer=POLY_cond $X=7.31 $Y=1.515
+ $X2=7.325 $Y2=1.515
r99 51 52 72.64 $w=1.7e-07 $l=3.4e-07 $layer=licon1_POLY $count=2 $X=7.31
+ $Y=1.515 $X2=7.31 $Y2=1.515
r100 49 51 19.2347 $w=3.3e-07 $l=1.1e-07 $layer=POLY_cond $X=7.2 $Y=1.515
+ $X2=7.31 $Y2=1.515
r101 48 49 65.573 $w=3.3e-07 $l=3.75e-07 $layer=POLY_cond $X=6.825 $Y=1.515
+ $X2=7.2 $Y2=1.515
r102 47 48 21.8577 $w=3.3e-07 $l=1.25e-07 $layer=POLY_cond $X=6.7 $Y=1.515
+ $X2=6.825 $Y2=1.515
r103 46 47 65.573 $w=3.3e-07 $l=3.75e-07 $layer=POLY_cond $X=6.325 $Y=1.515
+ $X2=6.7 $Y2=1.515
r104 44 46 6.12014 $w=3.3e-07 $l=3.5e-08 $layer=POLY_cond $X=6.29 $Y=1.515
+ $X2=6.325 $Y2=1.515
r105 44 45 72.64 $w=1.7e-07 $l=3.4e-07 $layer=licon1_POLY $count=2 $X=6.29
+ $Y=1.515 $X2=6.29 $Y2=1.515
r106 41 44 15.7375 $w=3.3e-07 $l=9e-08 $layer=POLY_cond $X=6.2 $Y=1.515 $X2=6.29
+ $Y2=1.515
r107 36 52 3.48413 $w=4.28e-07 $l=1.3e-07 $layer=LI1_cond $X=7.44 $Y=1.565
+ $X2=7.31 $Y2=1.565
r108 35 52 9.38035 $w=4.28e-07 $l=3.5e-07 $layer=LI1_cond $X=6.96 $Y=1.565
+ $X2=7.31 $Y2=1.565
r109 34 35 12.8645 $w=4.28e-07 $l=4.8e-07 $layer=LI1_cond $X=6.48 $Y=1.565
+ $X2=6.96 $Y2=1.565
r110 34 45 5.09219 $w=4.28e-07 $l=1.9e-07 $layer=LI1_cond $X=6.48 $Y=1.565
+ $X2=6.29 $Y2=1.565
r111 33 45 7.77229 $w=4.28e-07 $l=2.9e-07 $layer=LI1_cond $X=6 $Y=1.565 $X2=6.29
+ $Y2=1.565
r112 29 55 16.9318 $w=1.8e-07 $l=1.65e-07 $layer=POLY_cond $X=7.775 $Y=1.68
+ $X2=7.775 $Y2=1.515
r113 29 31 279.871 $w=1.8e-07 $l=7.2e-07 $layer=POLY_cond $X=7.775 $Y=1.68
+ $X2=7.775 $Y2=2.4
r114 25 54 21.2229 $w=1.5e-07 $l=1.65e-07 $layer=POLY_cond $X=7.63 $Y=1.35
+ $X2=7.63 $Y2=1.515
r115 25 27 312.787 $w=1.5e-07 $l=6.1e-07 $layer=POLY_cond $X=7.63 $Y=1.35
+ $X2=7.63 $Y2=0.74
r116 21 53 16.9318 $w=1.8e-07 $l=1.65e-07 $layer=POLY_cond $X=7.325 $Y=1.68
+ $X2=7.325 $Y2=1.515
r117 21 23 279.871 $w=1.8e-07 $l=7.2e-07 $layer=POLY_cond $X=7.325 $Y=1.68
+ $X2=7.325 $Y2=2.4
r118 17 49 21.2229 $w=1.5e-07 $l=1.65e-07 $layer=POLY_cond $X=7.2 $Y=1.35
+ $X2=7.2 $Y2=1.515
r119 17 19 312.787 $w=1.5e-07 $l=6.1e-07 $layer=POLY_cond $X=7.2 $Y=1.35 $X2=7.2
+ $Y2=0.74
r120 13 48 16.9318 $w=1.8e-07 $l=1.65e-07 $layer=POLY_cond $X=6.825 $Y=1.68
+ $X2=6.825 $Y2=1.515
r121 13 15 279.871 $w=1.8e-07 $l=7.2e-07 $layer=POLY_cond $X=6.825 $Y=1.68
+ $X2=6.825 $Y2=2.4
r122 9 47 21.2229 $w=1.5e-07 $l=1.65e-07 $layer=POLY_cond $X=6.7 $Y=1.35 $X2=6.7
+ $Y2=1.515
r123 9 11 312.787 $w=1.5e-07 $l=6.1e-07 $layer=POLY_cond $X=6.7 $Y=1.35 $X2=6.7
+ $Y2=0.74
r124 5 46 16.9318 $w=1.8e-07 $l=1.65e-07 $layer=POLY_cond $X=6.325 $Y=1.68
+ $X2=6.325 $Y2=1.515
r125 5 7 279.871 $w=1.8e-07 $l=7.2e-07 $layer=POLY_cond $X=6.325 $Y=1.68
+ $X2=6.325 $Y2=2.4
r126 1 41 21.2229 $w=1.5e-07 $l=1.65e-07 $layer=POLY_cond $X=6.2 $Y=1.35 $X2=6.2
+ $Y2=1.515
r127 1 3 312.787 $w=1.5e-07 $l=6.1e-07 $layer=POLY_cond $X=6.2 $Y=1.35 $X2=6.2
+ $Y2=0.74
.ends

.subckt PM_SKY130_FD_SC_MS__NOR4B_4%A 3 7 11 15 19 23 27 31 33 34 35 36 52
c82 52 0 2.46649e-19 $X=9.515 $Y=1.515
c83 36 0 8.50164e-20 $X=9.36 $Y=1.665
r84 52 53 8.81707 $w=3.28e-07 $l=6e-08 $layer=POLY_cond $X=9.515 $Y=1.515
+ $X2=9.575 $Y2=1.515
r85 50 52 26.4512 $w=3.28e-07 $l=1.8e-07 $layer=POLY_cond $X=9.335 $Y=1.515
+ $X2=9.515 $Y2=1.515
r86 50 51 72.64 $w=1.7e-07 $l=3.4e-07 $layer=licon1_POLY $count=2 $X=9.335
+ $Y=1.515 $X2=9.335 $Y2=1.515
r87 48 50 30.8598 $w=3.28e-07 $l=2.1e-07 $layer=POLY_cond $X=9.125 $Y=1.515
+ $X2=9.335 $Y2=1.515
r88 47 48 5.87805 $w=3.28e-07 $l=4e-08 $layer=POLY_cond $X=9.085 $Y=1.515
+ $X2=9.125 $Y2=1.515
r89 46 47 60.25 $w=3.28e-07 $l=4.1e-07 $layer=POLY_cond $X=8.675 $Y=1.515
+ $X2=9.085 $Y2=1.515
r90 45 46 2.93902 $w=3.28e-07 $l=2e-08 $layer=POLY_cond $X=8.655 $Y=1.515
+ $X2=8.675 $Y2=1.515
r91 43 45 49.9634 $w=3.28e-07 $l=3.4e-07 $layer=POLY_cond $X=8.315 $Y=1.515
+ $X2=8.655 $Y2=1.515
r92 43 44 72.64 $w=1.7e-07 $l=3.4e-07 $layer=licon1_POLY $count=2 $X=8.315
+ $Y=1.515 $X2=8.315 $Y2=1.515
r93 41 43 13.2256 $w=3.28e-07 $l=9e-08 $layer=POLY_cond $X=8.225 $Y=1.515
+ $X2=8.315 $Y2=1.515
r94 36 51 0.670025 $w=4.28e-07 $l=2.5e-08 $layer=LI1_cond $X=9.36 $Y=1.565
+ $X2=9.335 $Y2=1.565
r95 35 51 12.1945 $w=4.28e-07 $l=4.55e-07 $layer=LI1_cond $X=8.88 $Y=1.565
+ $X2=9.335 $Y2=1.565
r96 34 35 12.8645 $w=4.28e-07 $l=4.8e-07 $layer=LI1_cond $X=8.4 $Y=1.565
+ $X2=8.88 $Y2=1.565
r97 34 44 2.27808 $w=4.28e-07 $l=8.5e-08 $layer=LI1_cond $X=8.4 $Y=1.565
+ $X2=8.315 $Y2=1.565
r98 33 44 10.5864 $w=4.28e-07 $l=3.95e-07 $layer=LI1_cond $X=7.92 $Y=1.565
+ $X2=8.315 $Y2=1.565
r99 29 53 16.7902 $w=1.8e-07 $l=1.65e-07 $layer=POLY_cond $X=9.575 $Y=1.68
+ $X2=9.575 $Y2=1.515
r100 29 31 279.871 $w=1.8e-07 $l=7.2e-07 $layer=POLY_cond $X=9.575 $Y=1.68
+ $X2=9.575 $Y2=2.4
r101 25 52 21.0783 $w=1.5e-07 $l=1.65e-07 $layer=POLY_cond $X=9.515 $Y=1.35
+ $X2=9.515 $Y2=1.515
r102 25 27 312.787 $w=1.5e-07 $l=6.1e-07 $layer=POLY_cond $X=9.515 $Y=1.35
+ $X2=9.515 $Y2=0.74
r103 21 48 16.7902 $w=1.8e-07 $l=1.65e-07 $layer=POLY_cond $X=9.125 $Y=1.68
+ $X2=9.125 $Y2=1.515
r104 21 23 279.871 $w=1.8e-07 $l=7.2e-07 $layer=POLY_cond $X=9.125 $Y=1.68
+ $X2=9.125 $Y2=2.4
r105 17 47 21.0783 $w=1.5e-07 $l=1.65e-07 $layer=POLY_cond $X=9.085 $Y=1.35
+ $X2=9.085 $Y2=1.515
r106 17 19 312.787 $w=1.5e-07 $l=6.1e-07 $layer=POLY_cond $X=9.085 $Y=1.35
+ $X2=9.085 $Y2=0.74
r107 13 46 16.7902 $w=1.8e-07 $l=1.65e-07 $layer=POLY_cond $X=8.675 $Y=1.68
+ $X2=8.675 $Y2=1.515
r108 13 15 279.871 $w=1.8e-07 $l=7.2e-07 $layer=POLY_cond $X=8.675 $Y=1.68
+ $X2=8.675 $Y2=2.4
r109 9 45 21.0783 $w=1.5e-07 $l=1.65e-07 $layer=POLY_cond $X=8.655 $Y=1.35
+ $X2=8.655 $Y2=1.515
r110 9 11 312.787 $w=1.5e-07 $l=6.1e-07 $layer=POLY_cond $X=8.655 $Y=1.35
+ $X2=8.655 $Y2=0.74
r111 5 41 21.0783 $w=1.5e-07 $l=1.65e-07 $layer=POLY_cond $X=8.225 $Y=1.35
+ $X2=8.225 $Y2=1.515
r112 5 7 312.787 $w=1.5e-07 $l=6.1e-07 $layer=POLY_cond $X=8.225 $Y=1.35
+ $X2=8.225 $Y2=0.74
r113 1 41 16.7902 $w=1.8e-07 $l=1.65e-07 $layer=POLY_cond $X=8.225 $Y=1.68
+ $X2=8.225 $Y2=1.515
r114 1 3 279.871 $w=1.8e-07 $l=7.2e-07 $layer=POLY_cond $X=8.225 $Y=1.68
+ $X2=8.225 $Y2=2.4
.ends

.subckt PM_SKY130_FD_SC_MS__NOR4B_4%VPWR 1 2 3 4 13 15 19 23 27 29 31 36 44 51
+ 52 58 61 64
r104 64 65 9.3 $w=1.7e-07 $l=1.7e-07 $layer=mcon $count=1 $X=9.36 $Y=3.33
+ $X2=9.36 $Y2=3.33
r105 61 62 9.3 $w=1.7e-07 $l=1.7e-07 $layer=mcon $count=1 $X=8.4 $Y=3.33 $X2=8.4
+ $Y2=3.33
r106 58 59 9.3 $w=1.7e-07 $l=1.7e-07 $layer=mcon $count=1 $X=1.2 $Y=3.33 $X2=1.2
+ $Y2=3.33
r107 55 56 9.3 $w=1.7e-07 $l=1.7e-07 $layer=mcon $count=1 $X=0.24 $Y=3.33
+ $X2=0.24 $Y2=3.33
r108 52 65 0.133793 $w=4.9e-07 $l=4.8e-07 $layer=MET1_cond $X=9.84 $Y=3.33
+ $X2=9.36 $Y2=3.33
r109 51 52 9.3 $w=1.7e-07 $l=1.7e-07 $layer=mcon $count=1 $X=9.84 $Y=3.33
+ $X2=9.84 $Y2=3.33
r110 49 64 7.02821 $w=1.7e-07 $l=1.25e-07 $layer=LI1_cond $X=9.515 $Y=3.33
+ $X2=9.39 $Y2=3.33
r111 49 51 21.2032 $w=1.68e-07 $l=3.25e-07 $layer=LI1_cond $X=9.515 $Y=3.33
+ $X2=9.84 $Y2=3.33
r112 48 65 0.133793 $w=4.9e-07 $l=4.8e-07 $layer=MET1_cond $X=8.88 $Y=3.33
+ $X2=9.36 $Y2=3.33
r113 48 62 0.133793 $w=4.9e-07 $l=4.8e-07 $layer=MET1_cond $X=8.88 $Y=3.33
+ $X2=8.4 $Y2=3.33
r114 47 48 9.3 $w=1.7e-07 $l=1.7e-07 $layer=mcon $count=1 $X=8.88 $Y=3.33
+ $X2=8.88 $Y2=3.33
r115 45 61 7.02821 $w=1.7e-07 $l=1.25e-07 $layer=LI1_cond $X=8.535 $Y=3.33
+ $X2=8.41 $Y2=3.33
r116 45 47 22.508 $w=1.68e-07 $l=3.45e-07 $layer=LI1_cond $X=8.535 $Y=3.33
+ $X2=8.88 $Y2=3.33
r117 44 64 7.02821 $w=1.7e-07 $l=1.25e-07 $layer=LI1_cond $X=9.265 $Y=3.33
+ $X2=9.39 $Y2=3.33
r118 44 47 25.1176 $w=1.68e-07 $l=3.85e-07 $layer=LI1_cond $X=9.265 $Y=3.33
+ $X2=8.88 $Y2=3.33
r119 43 62 0.133793 $w=4.9e-07 $l=4.8e-07 $layer=MET1_cond $X=7.92 $Y=3.33
+ $X2=8.4 $Y2=3.33
r120 42 43 1.32857 $w=1.7e-07 $l=1.19e-06 $layer=mcon $count=7 $X=7.92 $Y=3.33
+ $X2=7.92 $Y2=3.33
r121 40 59 0.133793 $w=4.9e-07 $l=4.8e-07 $layer=MET1_cond $X=1.68 $Y=3.33
+ $X2=1.2 $Y2=3.33
r122 39 42 407.102 $w=1.68e-07 $l=6.24e-06 $layer=LI1_cond $X=1.68 $Y=3.33
+ $X2=7.92 $Y2=3.33
r123 39 40 1.32857 $w=1.7e-07 $l=1.19e-06 $layer=mcon $count=7 $X=1.68 $Y=3.33
+ $X2=1.68 $Y2=3.33
r124 37 58 7.44763 $w=1.7e-07 $l=1.35e-07 $layer=LI1_cond $X=1.345 $Y=3.33
+ $X2=1.21 $Y2=3.33
r125 37 39 21.8556 $w=1.68e-07 $l=3.35e-07 $layer=LI1_cond $X=1.345 $Y=3.33
+ $X2=1.68 $Y2=3.33
r126 36 61 7.02821 $w=1.7e-07 $l=1.25e-07 $layer=LI1_cond $X=8.285 $Y=3.33
+ $X2=8.41 $Y2=3.33
r127 36 42 23.8128 $w=1.68e-07 $l=3.65e-07 $layer=LI1_cond $X=8.285 $Y=3.33
+ $X2=7.92 $Y2=3.33
r128 35 59 0.133793 $w=4.9e-07 $l=4.8e-07 $layer=MET1_cond $X=0.72 $Y=3.33
+ $X2=1.2 $Y2=3.33
r129 35 56 0.133793 $w=4.9e-07 $l=4.8e-07 $layer=MET1_cond $X=0.72 $Y=3.33
+ $X2=0.24 $Y2=3.33
r130 34 35 9.3 $w=1.7e-07 $l=1.7e-07 $layer=mcon $count=1 $X=0.72 $Y=3.33
+ $X2=0.72 $Y2=3.33
r131 32 55 4.00981 $w=1.7e-07 $l=1.83e-07 $layer=LI1_cond $X=0.365 $Y=3.33
+ $X2=0.182 $Y2=3.33
r132 32 34 23.1604 $w=1.68e-07 $l=3.55e-07 $layer=LI1_cond $X=0.365 $Y=3.33
+ $X2=0.72 $Y2=3.33
r133 31 58 7.44763 $w=1.7e-07 $l=1.35e-07 $layer=LI1_cond $X=1.075 $Y=3.33
+ $X2=1.21 $Y2=3.33
r134 31 34 23.1604 $w=1.68e-07 $l=3.55e-07 $layer=LI1_cond $X=1.075 $Y=3.33
+ $X2=0.72 $Y2=3.33
r135 29 43 0.802756 $w=4.9e-07 $l=2.88e-06 $layer=MET1_cond $X=5.04 $Y=3.33
+ $X2=7.92 $Y2=3.33
r136 29 40 0.936549 $w=4.9e-07 $l=3.36e-06 $layer=MET1_cond $X=5.04 $Y=3.33
+ $X2=1.68 $Y2=3.33
r137 25 64 0.00168595 $w=2.5e-07 $l=8.5e-08 $layer=LI1_cond $X=9.39 $Y=3.245
+ $X2=9.39 $Y2=3.33
r138 25 27 36.4172 $w=2.48e-07 $l=7.9e-07 $layer=LI1_cond $X=9.39 $Y=3.245
+ $X2=9.39 $Y2=2.455
r139 21 61 0.00168595 $w=2.5e-07 $l=8.5e-08 $layer=LI1_cond $X=8.41 $Y=3.245
+ $X2=8.41 $Y2=3.33
r140 21 23 36.4172 $w=2.48e-07 $l=7.9e-07 $layer=LI1_cond $X=8.41 $Y=3.245
+ $X2=8.41 $Y2=2.455
r141 17 58 0.256868 $w=2.7e-07 $l=8.5e-08 $layer=LI1_cond $X=1.21 $Y=3.245
+ $X2=1.21 $Y2=3.33
r142 17 19 41.8294 $w=2.68e-07 $l=9.8e-07 $layer=LI1_cond $X=1.21 $Y=3.245
+ $X2=1.21 $Y2=2.265
r143 13 55 3.13335 $w=2.5e-07 $l=1.1025e-07 $layer=LI1_cond $X=0.24 $Y=3.245
+ $X2=0.182 $Y2=3.33
r144 13 15 45.1758 $w=2.48e-07 $l=9.8e-07 $layer=LI1_cond $X=0.24 $Y=3.245
+ $X2=0.24 $Y2=2.265
r145 4 27 300 $w=1.7e-07 $l=6.79154e-07 $layer=licon1_PDIFF $count=2 $X=9.215
+ $Y=1.84 $X2=9.35 $Y2=2.455
r146 3 23 300 $w=1.7e-07 $l=6.79154e-07 $layer=licon1_PDIFF $count=2 $X=8.315
+ $Y=1.84 $X2=8.45 $Y2=2.455
r147 2 19 300 $w=1.7e-07 $l=2.01494e-07 $layer=licon1_PDIFF $count=2 $X=1.045
+ $Y=2.12 $X2=1.18 $Y2=2.265
r148 1 15 300 $w=1.7e-07 $l=2.05061e-07 $layer=licon1_PDIFF $count=2 $X=0.135
+ $Y=2.12 $X2=0.28 $Y2=2.265
.ends

.subckt PM_SKY130_FD_SC_MS__NOR4B_4%A_319_368# 1 2 3 4 5 18 22 23 26 28 30 31 36
+ 41 42 44 45
c65 28 0 8.94367e-20 $X=3.475 $Y=2.99
r66 44 45 5.79692 $w=2.48e-07 $l=1e-07 $layer=LI1_cond $X=5.54 $Y=2.415 $X2=5.44
+ $Y2=2.415
r67 42 45 44.6898 $w=1.68e-07 $l=6.85e-07 $layer=LI1_cond $X=4.755 $Y=2.375
+ $X2=5.44 $Y2=2.375
r68 40 42 8.78489 $w=4.28e-07 $l=1.65e-07 $layer=LI1_cond $X=4.59 $Y=2.505
+ $X2=4.755 $Y2=2.505
r69 40 41 8.78489 $w=4.28e-07 $l=1.65e-07 $layer=LI1_cond $X=4.59 $Y=2.505
+ $X2=4.425 $Y2=2.505
r70 33 38 4.57959 $w=1.7e-07 $l=1.4e-07 $layer=LI1_cond $X=3.755 $Y=2.405
+ $X2=3.615 $Y2=2.405
r71 33 41 43.7112 $w=1.68e-07 $l=6.7e-07 $layer=LI1_cond $X=3.755 $Y=2.405
+ $X2=4.425 $Y2=2.405
r72 30 38 2.78046 $w=2.8e-07 $l=8.5e-08 $layer=LI1_cond $X=3.615 $Y=2.49
+ $X2=3.615 $Y2=2.405
r73 30 31 17.0809 $w=2.78e-07 $l=4.15e-07 $layer=LI1_cond $X=3.615 $Y=2.49
+ $X2=3.615 $Y2=2.905
r74 29 36 7.6511 $w=1.7e-07 $l=1.4e-07 $layer=LI1_cond $X=2.805 $Y=2.99
+ $X2=2.665 $Y2=2.99
r75 28 31 7.36005 $w=1.7e-07 $l=1.77482e-07 $layer=LI1_cond $X=3.475 $Y=2.99
+ $X2=3.615 $Y2=2.905
r76 28 29 43.7112 $w=1.68e-07 $l=6.7e-07 $layer=LI1_cond $X=3.475 $Y=2.99
+ $X2=2.805 $Y2=2.99
r77 24 36 0.375625 $w=2.8e-07 $l=8.5e-08 $layer=LI1_cond $X=2.665 $Y=2.905
+ $X2=2.665 $Y2=2.99
r78 24 26 23.872 $w=2.78e-07 $l=5.8e-07 $layer=LI1_cond $X=2.665 $Y=2.905
+ $X2=2.665 $Y2=2.325
r79 22 36 7.6511 $w=1.7e-07 $l=1.4e-07 $layer=LI1_cond $X=2.525 $Y=2.99
+ $X2=2.665 $Y2=2.99
r80 22 23 45.6684 $w=1.68e-07 $l=7e-07 $layer=LI1_cond $X=2.525 $Y=2.99
+ $X2=1.825 $Y2=2.99
r81 18 21 38.2611 $w=2.48e-07 $l=8.3e-07 $layer=LI1_cond $X=1.7 $Y=1.985 $X2=1.7
+ $Y2=2.815
r82 16 23 7.14316 $w=1.7e-07 $l=1.62019e-07 $layer=LI1_cond $X=1.7 $Y=2.905
+ $X2=1.825 $Y2=2.99
r83 16 21 4.14879 $w=2.48e-07 $l=9e-08 $layer=LI1_cond $X=1.7 $Y=2.905 $X2=1.7
+ $Y2=2.815
r84 5 44 600 $w=1.7e-07 $l=5.98707e-07 $layer=licon1_PDIFF $count=1 $X=5.405
+ $Y=1.84 $X2=5.54 $Y2=2.375
r85 4 40 600 $w=1.7e-07 $l=7.56869e-07 $layer=licon1_PDIFF $count=1 $X=4.405
+ $Y=1.84 $X2=4.59 $Y2=2.51
r86 3 38 300 $w=1.7e-07 $l=7.09295e-07 $layer=licon1_PDIFF $count=2 $X=3.455
+ $Y=1.84 $X2=3.59 $Y2=2.485
r87 2 26 300 $w=1.7e-07 $l=5.57136e-07 $layer=licon1_PDIFF $count=2 $X=2.505
+ $Y=1.84 $X2=2.66 $Y2=2.325
r88 1 21 400 $w=1.7e-07 $l=1.04499e-06 $layer=licon1_PDIFF $count=1 $X=1.595
+ $Y=1.84 $X2=1.74 $Y2=2.815
r89 1 18 400 $w=1.7e-07 $l=2.05061e-07 $layer=licon1_PDIFF $count=1 $X=1.595
+ $Y=1.84 $X2=1.74 $Y2=1.985
.ends

.subckt PM_SKY130_FD_SC_MS__NOR4B_4%Y 1 2 3 4 5 6 7 8 9 10 33 35 36 37 39 41 45
+ 47 51 53 57 59 63 65 66 69 71 75 77 81 83 87 91 94 99 106 107 108 109 110
c201 109 0 1.8401e-19 $X=5.52 $Y=1.295
c202 99 0 1.50238e-20 $X=3.625 $Y=1.095
c203 77 0 7.2349e-20 $X=8.275 $Y=1.095
c204 59 0 5.58611e-20 $X=4.905 $Y=1.095
c205 47 0 1.09607e-20 $X=3.5 $Y=1.385
c206 41 0 1.16661e-20 $X=2.975 $Y=1.905
c207 35 0 2.40437e-20 $X=2.5 $Y=1.065
r208 109 110 18.5393 $w=2.28e-07 $l=3.7e-07 $layer=LI1_cond $X=5.52 $Y=1.295
+ $X2=5.52 $Y2=1.665
r209 105 110 14.2803 $w=2.28e-07 $l=2.85e-07 $layer=LI1_cond $X=5.52 $Y=1.95
+ $X2=5.52 $Y2=1.665
r210 104 109 5.76222 $w=2.28e-07 $l=1.15e-07 $layer=LI1_cond $X=5.52 $Y=1.18
+ $X2=5.52 $Y2=1.295
r211 99 100 13.3683 $w=2.48e-07 $l=2.9e-07 $layer=LI1_cond $X=3.625 $Y=1.095
+ $X2=3.625 $Y2=1.385
r212 97 98 2.26996 $w=3.28e-07 $l=6.5e-08 $layer=LI1_cond $X=3.14 $Y=1.97
+ $X2=3.14 $Y2=2.035
r213 94 97 2.26996 $w=3.28e-07 $l=6.5e-08 $layer=LI1_cond $X=3.14 $Y=1.905
+ $X2=3.14 $Y2=1.97
r214 91 92 11.1752 $w=3.28e-07 $l=3.2e-07 $layer=LI1_cond $X=2.665 $Y=1.065
+ $X2=2.665 $Y2=1.385
r215 85 87 22.8184 $w=2.48e-07 $l=4.95e-07 $layer=LI1_cond $X=9.34 $Y=1.01
+ $X2=9.34 $Y2=0.515
r216 84 108 7.02821 $w=1.7e-07 $l=1.25e-07 $layer=LI1_cond $X=8.525 $Y=1.095
+ $X2=8.4 $Y2=1.095
r217 83 85 7.14316 $w=1.7e-07 $l=1.62019e-07 $layer=LI1_cond $X=9.215 $Y=1.095
+ $X2=9.34 $Y2=1.01
r218 83 84 45.016 $w=1.68e-07 $l=6.9e-07 $layer=LI1_cond $X=9.215 $Y=1.095
+ $X2=8.525 $Y2=1.095
r219 79 108 0.00168595 $w=2.5e-07 $l=8.5e-08 $layer=LI1_cond $X=8.4 $Y=1.01
+ $X2=8.4 $Y2=1.095
r220 79 81 22.8184 $w=2.48e-07 $l=4.95e-07 $layer=LI1_cond $X=8.4 $Y=1.01
+ $X2=8.4 $Y2=0.515
r221 78 107 8.61065 $w=1.7e-07 $l=1.65e-07 $layer=LI1_cond $X=7.58 $Y=1.095
+ $X2=7.415 $Y2=1.095
r222 77 108 7.02821 $w=1.7e-07 $l=1.25e-07 $layer=LI1_cond $X=8.275 $Y=1.095
+ $X2=8.4 $Y2=1.095
r223 77 78 45.3422 $w=1.68e-07 $l=6.95e-07 $layer=LI1_cond $X=8.275 $Y=1.095
+ $X2=7.58 $Y2=1.095
r224 73 107 0.89609 $w=3.3e-07 $l=8.5e-08 $layer=LI1_cond $X=7.415 $Y=1.01
+ $X2=7.415 $Y2=1.095
r225 73 75 17.2866 $w=3.28e-07 $l=4.95e-07 $layer=LI1_cond $X=7.415 $Y=1.01
+ $X2=7.415 $Y2=0.515
r226 72 106 8.61065 $w=1.7e-07 $l=1.65e-07 $layer=LI1_cond $X=6.58 $Y=1.095
+ $X2=6.415 $Y2=1.095
r227 71 107 8.61065 $w=1.7e-07 $l=1.65e-07 $layer=LI1_cond $X=7.25 $Y=1.095
+ $X2=7.415 $Y2=1.095
r228 71 72 43.7112 $w=1.68e-07 $l=6.7e-07 $layer=LI1_cond $X=7.25 $Y=1.095
+ $X2=6.58 $Y2=1.095
r229 67 106 0.89609 $w=3.3e-07 $l=8.5e-08 $layer=LI1_cond $X=6.415 $Y=1.01
+ $X2=6.415 $Y2=1.095
r230 67 69 17.2866 $w=3.28e-07 $l=4.95e-07 $layer=LI1_cond $X=6.415 $Y=1.01
+ $X2=6.415 $Y2=0.515
r231 66 104 7.50267 $w=1.68e-07 $l=1.15e-07 $layer=LI1_cond $X=5.635 $Y=1.095
+ $X2=5.52 $Y2=1.095
r232 65 106 8.61065 $w=1.7e-07 $l=1.65e-07 $layer=LI1_cond $X=6.25 $Y=1.095
+ $X2=6.415 $Y2=1.095
r233 65 66 40.123 $w=1.68e-07 $l=6.15e-07 $layer=LI1_cond $X=6.25 $Y=1.095
+ $X2=5.635 $Y2=1.095
r234 61 104 29.3583 $w=1.68e-07 $l=4.5e-07 $layer=LI1_cond $X=5.07 $Y=1.095
+ $X2=5.52 $Y2=1.095
r235 61 63 17.2866 $w=3.28e-07 $l=4.95e-07 $layer=LI1_cond $X=5.07 $Y=1.01
+ $X2=5.07 $Y2=0.515
r236 60 99 2.99516 $w=1.7e-07 $l=1.25e-07 $layer=LI1_cond $X=3.75 $Y=1.095
+ $X2=3.625 $Y2=1.095
r237 59 61 10.7647 $w=1.68e-07 $l=1.65e-07 $layer=LI1_cond $X=4.905 $Y=1.095
+ $X2=5.07 $Y2=1.095
r238 59 60 75.3529 $w=1.68e-07 $l=1.155e-06 $layer=LI1_cond $X=4.905 $Y=1.095
+ $X2=3.75 $Y2=1.095
r239 55 99 3.91831 $w=2.48e-07 $l=8.5e-08 $layer=LI1_cond $X=3.625 $Y=1.01
+ $X2=3.625 $Y2=1.095
r240 55 57 22.8184 $w=2.48e-07 $l=4.95e-07 $layer=LI1_cond $X=3.625 $Y=1.01
+ $X2=3.625 $Y2=0.515
r241 54 98 4.62375 $w=1.7e-07 $l=1.65e-07 $layer=LI1_cond $X=3.305 $Y=2.035
+ $X2=3.14 $Y2=2.035
r242 53 105 7.01789 $w=1.7e-07 $l=1.51658e-07 $layer=LI1_cond $X=5.405 $Y=2.035
+ $X2=5.52 $Y2=1.95
r243 53 54 137.005 $w=1.68e-07 $l=2.1e-06 $layer=LI1_cond $X=5.405 $Y=2.035
+ $X2=3.305 $Y2=2.035
r244 49 98 2.96841 $w=3.28e-07 $l=8.5e-08 $layer=LI1_cond $X=3.14 $Y=2.12
+ $X2=3.14 $Y2=2.035
r245 49 51 18.5089 $w=3.28e-07 $l=5.3e-07 $layer=LI1_cond $X=3.14 $Y=2.12
+ $X2=3.14 $Y2=2.65
r246 48 92 4.62375 $w=1.7e-07 $l=1.65e-07 $layer=LI1_cond $X=2.83 $Y=1.385
+ $X2=2.665 $Y2=1.385
r247 47 100 2.99516 $w=1.7e-07 $l=1.25e-07 $layer=LI1_cond $X=3.5 $Y=1.385
+ $X2=3.625 $Y2=1.385
r248 47 48 43.7112 $w=1.68e-07 $l=6.7e-07 $layer=LI1_cond $X=3.5 $Y=1.385
+ $X2=2.83 $Y2=1.385
r249 43 91 2.96841 $w=3.28e-07 $l=8.5e-08 $layer=LI1_cond $X=2.665 $Y=0.98
+ $X2=2.665 $Y2=1.065
r250 43 45 16.239 $w=3.28e-07 $l=4.65e-07 $layer=LI1_cond $X=2.665 $Y=0.98
+ $X2=2.665 $Y2=0.515
r251 42 90 5.12568 $w=1.7e-07 $l=1.65e-07 $layer=LI1_cond $X=2.355 $Y=1.905
+ $X2=2.19 $Y2=1.905
r252 41 94 4.62375 $w=1.7e-07 $l=1.65e-07 $layer=LI1_cond $X=2.975 $Y=1.905
+ $X2=3.14 $Y2=1.905
r253 41 42 40.4492 $w=1.68e-07 $l=6.2e-07 $layer=LI1_cond $X=2.975 $Y=1.905
+ $X2=2.355 $Y2=1.905
r254 37 90 2.6405 $w=3.3e-07 $l=8.5e-08 $layer=LI1_cond $X=2.19 $Y=1.99 $X2=2.19
+ $Y2=1.905
r255 37 39 23.0489 $w=3.28e-07 $l=6.6e-07 $layer=LI1_cond $X=2.19 $Y=1.99
+ $X2=2.19 $Y2=2.65
r256 35 91 4.62375 $w=1.7e-07 $l=1.65e-07 $layer=LI1_cond $X=2.5 $Y=1.065
+ $X2=2.665 $Y2=1.065
r257 35 36 44.3636 $w=1.68e-07 $l=6.8e-07 $layer=LI1_cond $X=2.5 $Y=1.065
+ $X2=1.82 $Y2=1.065
r258 31 36 7.14316 $w=1.7e-07 $l=1.62019e-07 $layer=LI1_cond $X=1.695 $Y=0.98
+ $X2=1.82 $Y2=1.065
r259 31 33 21.4354 $w=2.48e-07 $l=4.65e-07 $layer=LI1_cond $X=1.695 $Y=0.98
+ $X2=1.695 $Y2=0.515
r260 10 97 400 $w=1.7e-07 $l=1.89143e-07 $layer=licon1_PDIFF $count=1 $X=3.005
+ $Y=1.84 $X2=3.14 $Y2=1.97
r261 10 51 400 $w=1.7e-07 $l=8.749e-07 $layer=licon1_PDIFF $count=1 $X=3.005
+ $Y=1.84 $X2=3.14 $Y2=2.65
r262 9 90 400 $w=1.7e-07 $l=1.89143e-07 $layer=licon1_PDIFF $count=1 $X=2.055
+ $Y=1.84 $X2=2.19 $Y2=1.97
r263 9 39 400 $w=1.7e-07 $l=8.749e-07 $layer=licon1_PDIFF $count=1 $X=2.055
+ $Y=1.84 $X2=2.19 $Y2=2.65
r264 8 87 91 $w=1.7e-07 $l=2.03286e-07 $layer=licon1_NDIFF $count=2 $X=9.16
+ $Y=0.37 $X2=9.3 $Y2=0.515
r265 7 81 91 $w=1.7e-07 $l=2.03286e-07 $layer=licon1_NDIFF $count=2 $X=8.3
+ $Y=0.37 $X2=8.44 $Y2=0.515
r266 6 75 91 $w=1.7e-07 $l=2.03286e-07 $layer=licon1_NDIFF $count=2 $X=7.275
+ $Y=0.37 $X2=7.415 $Y2=0.515
r267 5 69 91 $w=1.7e-07 $l=2.03286e-07 $layer=licon1_NDIFF $count=2 $X=6.275
+ $Y=0.37 $X2=6.415 $Y2=0.515
r268 4 63 91 $w=1.7e-07 $l=2.03286e-07 $layer=licon1_NDIFF $count=2 $X=4.93
+ $Y=0.37 $X2=5.07 $Y2=0.515
r269 3 57 91 $w=1.7e-07 $l=2.03286e-07 $layer=licon1_NDIFF $count=2 $X=3.525
+ $Y=0.37 $X2=3.665 $Y2=0.515
r270 2 45 91 $w=1.7e-07 $l=2.03286e-07 $layer=licon1_NDIFF $count=2 $X=2.525
+ $Y=0.37 $X2=2.665 $Y2=0.515
r271 1 33 91 $w=1.7e-07 $l=2.83373e-07 $layer=licon1_NDIFF $count=2 $X=1.515
+ $Y=0.37 $X2=1.735 $Y2=0.515
.ends

.subckt PM_SKY130_FD_SC_MS__NOR4B_4%A_781_368# 1 2 3 4 13 15 19 21 25 28 33 37
c61 15 0 6.8274e-20 $X=6.435 $Y=2.99
c62 13 0 7.36839e-20 $X=4.925 $Y=2.99
r63 33 35 7.85757 $w=3.28e-07 $l=2.25e-07 $layer=LI1_cond $X=5.09 $Y=2.765
+ $X2=5.09 $Y2=2.99
r64 28 30 7.33373 $w=3.28e-07 $l=2.1e-07 $layer=LI1_cond $X=4.09 $Y=2.78
+ $X2=4.09 $Y2=2.99
r65 23 25 20.744 $w=2.48e-07 $l=4.5e-07 $layer=LI1_cond $X=7.59 $Y=2.905
+ $X2=7.59 $Y2=2.455
r66 22 37 8.61065 $w=1.7e-07 $l=1.65e-07 $layer=LI1_cond $X=6.765 $Y=2.99
+ $X2=6.6 $Y2=2.99
r67 21 23 7.14316 $w=1.7e-07 $l=1.62019e-07 $layer=LI1_cond $X=7.465 $Y=2.99
+ $X2=7.59 $Y2=2.905
r68 21 22 45.6684 $w=1.68e-07 $l=7e-07 $layer=LI1_cond $X=7.465 $Y=2.99
+ $X2=6.765 $Y2=2.99
r69 17 37 0.89609 $w=3.3e-07 $l=8.5e-08 $layer=LI1_cond $X=6.6 $Y=2.905 $X2=6.6
+ $Y2=2.99
r70 17 19 15.7151 $w=3.28e-07 $l=4.5e-07 $layer=LI1_cond $X=6.6 $Y=2.905 $X2=6.6
+ $Y2=2.455