* File: sky130_fd_sc_ms__a2111o_4.pex.spice
* Created: Wed Sep  2 11:49:33 2020
* Program "Calibre xRC"
* Version "v2018.4_34.26"
* Nominal Temperature: 27C
* Circuit Temperature: 27C
* 
.subckt PM_SKY130_FD_SC_MS__A2111O_4%A_137_260# 1 2 3 4 5 18 22 26 30 34 38 42
+ 46 48 58 61 63 66 70 72 76 78 82 84 85 89 91 94 105
c179 91 0 7.64327e-20 $X=4.135 $Y=1.005
c180 89 0 6.96325e-20 $X=3.32 $Y=2.115
c181 85 0 1.34483e-19 $X=3.13 $Y=1.465
c182 82 0 1.83628e-19 $X=6.605 $Y=0.79
c183 78 0 7.29804e-20 $X=6.51 $Y=1.195
c184 76 0 8.41147e-20 $X=5.005 $Y=0.515
c185 70 0 1.39795e-19 $X=4.135 $Y=0.515
c186 63 0 1.80394e-19 $X=3.13 $Y=1.95
c187 58 0 1.47805e-19 $X=3.265 $Y=0.515
r188 102 103 3.49723 $w=3.3e-07 $l=2e-08 $layer=POLY_cond $X=2.125 $Y=1.465
+ $X2=2.145 $Y2=1.465
r189 101 102 71.6931 $w=3.3e-07 $l=4.1e-07 $layer=POLY_cond $X=1.715 $Y=1.465
+ $X2=2.125 $Y2=1.465
r190 100 101 6.99445 $w=3.3e-07 $l=4e-08 $layer=POLY_cond $X=1.675 $Y=1.465
+ $X2=1.715 $Y2=1.465
r191 99 100 68.1959 $w=3.3e-07 $l=3.9e-07 $layer=POLY_cond $X=1.285 $Y=1.465
+ $X2=1.675 $Y2=1.465
r192 98 99 10.4917 $w=3.3e-07 $l=6e-08 $layer=POLY_cond $X=1.225 $Y=1.465
+ $X2=1.285 $Y2=1.465
r193 91 92 12.3957 $w=1.68e-07 $l=1.9e-07 $layer=LI1_cond $X=4.135 $Y=1.005
+ $X2=4.135 $Y2=1.195
r194 86 89 12.3957 $w=1.68e-07 $l=1.9e-07 $layer=LI1_cond $X=3.13 $Y=2.035
+ $X2=3.32 $Y2=2.035
r195 80 82 14.1839 $w=2.58e-07 $l=3.2e-07 $layer=LI1_cond $X=6.64 $Y=1.11
+ $X2=6.64 $Y2=0.79
r196 79 94 5.16603 $w=1.7e-07 $l=8.5e-08 $layer=LI1_cond $X=5.09 $Y=1.195
+ $X2=5.005 $Y2=1.195
r197 78 80 7.21222 $w=1.7e-07 $l=1.67183e-07 $layer=LI1_cond $X=6.51 $Y=1.195
+ $X2=6.64 $Y2=1.11
r198 78 79 92.6417 $w=1.68e-07 $l=1.42e-06 $layer=LI1_cond $X=6.51 $Y=1.195
+ $X2=5.09 $Y2=1.195
r199 74 94 1.34256 $w=1.7e-07 $l=8.5e-08 $layer=LI1_cond $X=5.005 $Y=1.11
+ $X2=5.005 $Y2=1.195
r200 74 76 38.8182 $w=1.68e-07 $l=5.95e-07 $layer=LI1_cond $X=5.005 $Y=1.11
+ $X2=5.005 $Y2=0.515
r201 73 92 0.716491 $w=1.7e-07 $l=8.5e-08 $layer=LI1_cond $X=4.22 $Y=1.195
+ $X2=4.135 $Y2=1.195
r202 72 94 5.16603 $w=1.7e-07 $l=8.5e-08 $layer=LI1_cond $X=4.92 $Y=1.195
+ $X2=5.005 $Y2=1.195
r203 72 73 45.6684 $w=1.68e-07 $l=7e-07 $layer=LI1_cond $X=4.92 $Y=1.195
+ $X2=4.22 $Y2=1.195
r204 68 91 5.54545 $w=1.68e-07 $l=8.5e-08 $layer=LI1_cond $X=4.135 $Y=0.92
+ $X2=4.135 $Y2=1.005
r205 68 70 26.4225 $w=1.68e-07 $l=4.05e-07 $layer=LI1_cond $X=4.135 $Y=0.92
+ $X2=4.135 $Y2=0.515
r206 67 84 2.57001 $w=1.7e-07 $l=1.53e-07 $layer=LI1_cond $X=3.35 $Y=1.005
+ $X2=3.197 $Y2=1.005
r207 66 91 0.716491 $w=1.7e-07 $l=8.5e-08 $layer=LI1_cond $X=4.05 $Y=1.005
+ $X2=4.135 $Y2=1.005
r208 66 67 45.6684 $w=1.68e-07 $l=7e-07 $layer=LI1_cond $X=4.05 $Y=1.005
+ $X2=3.35 $Y2=1.005
r209 63 86 0.716491 $w=1.7e-07 $l=8.5e-08 $layer=LI1_cond $X=3.13 $Y=1.95
+ $X2=3.13 $Y2=2.035
r210 62 85 8.61065 $w=1.7e-07 $l=1.65e-07 $layer=LI1_cond $X=3.13 $Y=1.63
+ $X2=3.13 $Y2=1.465
r211 62 63 20.877 $w=1.68e-07 $l=3.2e-07 $layer=LI1_cond $X=3.13 $Y=1.63
+ $X2=3.13 $Y2=1.95
r212 61 85 8.61065 $w=1.7e-07 $l=1.65e-07 $layer=LI1_cond $X=3.13 $Y=1.3
+ $X2=3.13 $Y2=1.465
r213 60 84 3.87901 $w=2.37e-07 $l=1.13666e-07 $layer=LI1_cond $X=3.13 $Y=1.09
+ $X2=3.197 $Y2=1.005
r214 60 61 13.7005 $w=1.68e-07 $l=2.1e-07 $layer=LI1_cond $X=3.13 $Y=1.09
+ $X2=3.13 $Y2=1.3
r215 56 84 3.87901 $w=2.37e-07 $l=8.5e-08 $layer=LI1_cond $X=3.197 $Y=0.92
+ $X2=3.197 $Y2=1.005
r216 56 58 15.3029 $w=3.03e-07 $l=4.05e-07 $layer=LI1_cond $X=3.197 $Y=0.92
+ $X2=3.197 $Y2=0.515
r217 55 105 15.7375 $w=3.3e-07 $l=9e-08 $layer=POLY_cond $X=2.485 $Y=1.465
+ $X2=2.575 $Y2=1.465
r218 55 103 59.4528 $w=3.3e-07 $l=3.4e-07 $layer=POLY_cond $X=2.485 $Y=1.465
+ $X2=2.145 $Y2=1.465
r219 54 55 58.112 $w=1.7e-07 $l=4.25e-07 $layer=licon1_POLY $count=2 $X=2.485
+ $Y=1.465 $X2=2.485 $Y2=1.465
r220 51 98 33.2236 $w=3.3e-07 $l=1.9e-07 $layer=POLY_cond $X=1.035 $Y=1.465
+ $X2=1.225 $Y2=1.465
r221 51 95 45.4639 $w=3.3e-07 $l=2.6e-07 $layer=POLY_cond $X=1.035 $Y=1.465
+ $X2=0.775 $Y2=1.465
r222 50 54 50.6376 $w=3.28e-07 $l=1.45e-06 $layer=LI1_cond $X=1.035 $Y=1.465
+ $X2=2.485 $Y2=1.465
r223 50 51 58.112 $w=1.7e-07 $l=4.25e-07 $layer=licon1_POLY $count=2 $X=1.035
+ $Y=1.465 $X2=1.035 $Y2=1.465
r224 48 85 0.89609 $w=3.3e-07 $l=8.5e-08 $layer=LI1_cond $X=3.045 $Y=1.465
+ $X2=3.13 $Y2=1.465
r225 48 54 19.5566 $w=3.28e-07 $l=5.6e-07 $layer=LI1_cond $X=3.045 $Y=1.465
+ $X2=2.485 $Y2=1.465
r226 44 105 21.2229 $w=1.5e-07 $l=1.65e-07 $layer=POLY_cond $X=2.575 $Y=1.3
+ $X2=2.575 $Y2=1.465
r227 44 46 287.149 $w=1.5e-07 $l=5.6e-07 $layer=POLY_cond $X=2.575 $Y=1.3
+ $X2=2.575 $Y2=0.74
r228 40 103 21.2229 $w=1.5e-07 $l=1.65e-07 $layer=POLY_cond $X=2.145 $Y=1.3
+ $X2=2.145 $Y2=1.465
r229 40 42 287.149 $w=1.5e-07 $l=5.6e-07 $layer=POLY_cond $X=2.145 $Y=1.3
+ $X2=2.145 $Y2=0.74
r230 36 102 16.9318 $w=1.8e-07 $l=1.65e-07 $layer=POLY_cond $X=2.125 $Y=1.63
+ $X2=2.125 $Y2=1.465
r231 36 38 299.306 $w=1.8e-07 $l=7.7e-07 $layer=POLY_cond $X=2.125 $Y=1.63
+ $X2=2.125 $Y2=2.4
r232 32 101 21.2229 $w=1.5e-07 $l=1.65e-07 $layer=POLY_cond $X=1.715 $Y=1.3
+ $X2=1.715 $Y2=1.465
r233 32 34 287.149 $w=1.5e-07 $l=5.6e-07 $layer=POLY_cond $X=1.715 $Y=1.3
+ $X2=1.715 $Y2=0.74
r234 28 100 16.9318 $w=1.8e-07 $l=1.65e-07 $layer=POLY_cond $X=1.675 $Y=1.63
+ $X2=1.675 $Y2=1.465
r235 28 30 299.306 $w=1.8e-07 $l=7.7e-07 $layer=POLY_cond $X=1.675 $Y=1.63
+ $X2=1.675 $Y2=2.4
r236 24 99 21.2229 $w=1.5e-07 $l=1.65e-07 $layer=POLY_cond $X=1.285 $Y=1.3
+ $X2=1.285 $Y2=1.465
r237 24 26 287.149 $w=1.5e-07 $l=5.6e-07 $layer=POLY_cond $X=1.285 $Y=1.3
+ $X2=1.285 $Y2=0.74
r238 20 98 16.9318 $w=1.8e-07 $l=1.65e-07 $layer=POLY_cond $X=1.225 $Y=1.63
+ $X2=1.225 $Y2=1.465
r239 20 22 299.306 $w=1.8e-07 $l=7.7e-07 $layer=POLY_cond $X=1.225 $Y=1.63
+ $X2=1.225 $Y2=2.4
r240 16 95 16.9318 $w=1.8e-07 $l=1.65e-07 $layer=POLY_cond $X=0.775 $Y=1.63
+ $X2=0.775 $Y2=1.465
r241 16 18 299.306 $w=1.8e-07 $l=7.7e-07 $layer=POLY_cond $X=0.775 $Y=1.63
+ $X2=0.775 $Y2=2.4
r242 5 89 300 $w=1.7e-07 $l=2.12014e-07 $layer=licon1_PDIFF $count=2 $X=3.185
+ $Y=1.96 $X2=3.32 $Y2=2.115
r243 4 82 182 $w=1.7e-07 $l=4.84974e-07 $layer=licon1_NDIFF $count=1 $X=6.465
+ $Y=0.37 $X2=6.605 $Y2=0.79
r244 3 76 91 $w=1.7e-07 $l=2.03286e-07 $layer=licon1_NDIFF $count=2 $X=4.865
+ $Y=0.37 $X2=5.005 $Y2=0.515
r245 2 70 91 $w=1.7e-07 $l=2.03286e-07 $layer=licon1_NDIFF $count=2 $X=3.995
+ $Y=0.37 $X2=4.135 $Y2=0.515
r246 1 58 91 $w=1.7e-07 $l=2.03286e-07 $layer=licon1_NDIFF $count=2 $X=3.125
+ $Y=0.37 $X2=3.265 $Y2=0.515
.ends

.subckt PM_SKY130_FD_SC_MS__A2111O_4%D1 3 7 11 15 17 23 24
c61 15 0 2.04115e-19 $X=3.545 $Y=2.46
c62 11 0 1.47805e-19 $X=3.48 $Y=0.69
r63 24 25 9.76012 $w=3.21e-07 $l=6.5e-08 $layer=POLY_cond $X=3.48 $Y=1.425
+ $X2=3.545 $Y2=1.425
r64 22 24 1.50156 $w=3.21e-07 $l=1e-08 $layer=POLY_cond $X=3.47 $Y=1.425
+ $X2=3.48 $Y2=1.425
r65 22 23 145.28 $w=1.7e-07 $l=1.7e-07 $layer=licon1_POLY $count=1 $X=3.47
+ $Y=1.425 $X2=3.47 $Y2=1.425
r66 20 22 56.3084 $w=3.21e-07 $l=3.75e-07 $layer=POLY_cond $X=3.095 $Y=1.425
+ $X2=3.47 $Y2=1.425
r67 19 20 6.75701 $w=3.21e-07 $l=4.5e-08 $layer=POLY_cond $X=3.05 $Y=1.425
+ $X2=3.095 $Y2=1.425
r68 17 23 8.3814 $w=3.28e-07 $l=2.4e-07 $layer=LI1_cond $X=3.55 $Y=1.665
+ $X2=3.55 $Y2=1.425
r69 13 25 16.2883 $w=1.8e-07 $l=1.65e-07 $layer=POLY_cond $X=3.545 $Y=1.59
+ $X2=3.545 $Y2=1.425
r70 13 15 338.177 $w=1.8e-07 $l=8.7e-07 $layer=POLY_cond $X=3.545 $Y=1.59
+ $X2=3.545 $Y2=2.46
r71 9 24 20.5661 $w=1.5e-07 $l=1.65e-07 $layer=POLY_cond $X=3.48 $Y=1.26
+ $X2=3.48 $Y2=1.425
r72 9 11 292.277 $w=1.5e-07 $l=5.7e-07 $layer=POLY_cond $X=3.48 $Y=1.26 $X2=3.48
+ $Y2=0.69
r73 5 20 16.2883 $w=1.8e-07 $l=1.65e-07 $layer=POLY_cond $X=3.095 $Y=1.59
+ $X2=3.095 $Y2=1.425
r74 5 7 338.177 $w=1.8e-07 $l=8.7e-07 $layer=POLY_cond $X=3.095 $Y=1.59
+ $X2=3.095 $Y2=2.46
r75 1 19 20.5661 $w=1.5e-07 $l=1.65e-07 $layer=POLY_cond $X=3.05 $Y=1.26
+ $X2=3.05 $Y2=1.425
r76 1 3 292.277 $w=1.5e-07 $l=5.7e-07 $layer=POLY_cond $X=3.05 $Y=1.26 $X2=3.05
+ $Y2=0.69
.ends

.subckt PM_SKY130_FD_SC_MS__A2111O_4%C1 3 7 11 13 16 18 19 20 21 22 29
c63 19 0 8.41147e-20 $X=4.36 $Y=1.235
c64 13 0 7.64327e-20 $X=4.37 $Y=1.45
c65 7 0 8.37567e-20 $X=3.995 $Y=2.46
c66 3 0 1.39795e-19 $X=3.92 $Y=0.69
r67 31 32 72.64 $w=1.7e-07 $l=3.4e-07 $layer=licon1_POLY $count=2 $X=4.46
+ $Y=1.615 $X2=4.46 $Y2=1.615
r68 29 31 2.28797 $w=3.16e-07 $l=1.5e-08 $layer=POLY_cond $X=4.445 $Y=1.615
+ $X2=4.46 $Y2=1.615
r69 28 29 11.4399 $w=3.16e-07 $l=7.5e-08 $layer=POLY_cond $X=4.37 $Y=1.615
+ $X2=4.445 $Y2=1.615
r70 27 28 57.1994 $w=3.16e-07 $l=3.75e-07 $layer=POLY_cond $X=3.995 $Y=1.615
+ $X2=4.37 $Y2=1.615
r71 26 27 11.4399 $w=3.16e-07 $l=7.5e-08 $layer=POLY_cond $X=3.92 $Y=1.615
+ $X2=3.995 $Y2=1.615
r72 21 22 16.7628 $w=3.28e-07 $l=4.8e-07 $layer=LI1_cond $X=4.56 $Y=1.615
+ $X2=5.04 $Y2=1.615
r73 21 32 3.49225 $w=3.28e-07 $l=1e-07 $layer=LI1_cond $X=4.56 $Y=1.615 $X2=4.46
+ $Y2=1.615
r74 20 32 13.2706 $w=3.28e-07 $l=3.8e-07 $layer=LI1_cond $X=4.08 $Y=1.615
+ $X2=4.46 $Y2=1.615
r75 18 19 63.4211 $w=1.7e-07 $l=1.5e-07 $layer=POLY_cond $X=4.36 $Y=1.085
+ $X2=4.36 $Y2=1.235
r76 14 29 15.9236 $w=1.8e-07 $l=1.65e-07 $layer=POLY_cond $X=4.445 $Y=1.78
+ $X2=4.445 $Y2=1.615
r77 14 16 264.323 $w=1.8e-07 $l=6.8e-07 $layer=POLY_cond $X=4.445 $Y=1.78
+ $X2=4.445 $Y2=2.46
r78 13 28 20.1942 $w=1.5e-07 $l=1.65e-07 $layer=POLY_cond $X=4.37 $Y=1.45
+ $X2=4.37 $Y2=1.615
r79 13 19 110.245 $w=1.5e-07 $l=2.15e-07 $layer=POLY_cond $X=4.37 $Y=1.45
+ $X2=4.37 $Y2=1.235
r80 11 18 126.927 $w=1.5e-07 $l=3.95e-07 $layer=POLY_cond $X=4.35 $Y=0.69
+ $X2=4.35 $Y2=1.085
r81 5 27 15.9236 $w=1.8e-07 $l=1.65e-07 $layer=POLY_cond $X=3.995 $Y=1.78
+ $X2=3.995 $Y2=1.615
r82 5 7 264.323 $w=1.8e-07 $l=6.8e-07 $layer=POLY_cond $X=3.995 $Y=1.78
+ $X2=3.995 $Y2=2.46
r83 1 26 20.1942 $w=1.5e-07 $l=1.65e-07 $layer=POLY_cond $X=3.92 $Y=1.45
+ $X2=3.92 $Y2=1.615
r84 1 3 389.702 $w=1.5e-07 $l=7.6e-07 $layer=POLY_cond $X=3.92 $Y=1.45 $X2=3.92
+ $Y2=0.69
.ends

.subckt PM_SKY130_FD_SC_MS__A2111O_4%B1 1 3 4 5 6 8 11 13 15 16 17 23
c55 13 0 2.71764e-19 $X=5.865 $Y=1.87
r56 23 25 25.211 $w=5.64e-07 $l=2.95e-07 $layer=POLY_cond $X=5.57 $Y=1.48
+ $X2=5.865 $Y2=1.48
r57 21 23 13.2465 $w=5.64e-07 $l=1.55e-07 $layer=POLY_cond $X=5.415 $Y=1.48
+ $X2=5.57 $Y2=1.48
r58 16 17 16.7628 $w=3.28e-07 $l=4.8e-07 $layer=LI1_cond $X=5.52 $Y=1.615 $X2=6
+ $Y2=1.615
r59 16 23 145.28 $w=1.7e-07 $l=1.7e-07 $layer=licon1_POLY $count=1 $X=5.57
+ $Y=1.615 $X2=5.57 $Y2=1.615
r60 13 25 29.8519 $w=1.8e-07 $l=3.9e-07 $layer=POLY_cond $X=5.865 $Y=1.87
+ $X2=5.865 $Y2=1.48
r61 13 15 157.989 $w=1.8e-07 $l=5.9e-07 $layer=POLY_cond $X=5.865 $Y=1.87
+ $X2=5.865 $Y2=2.46
r62 9 21 29.8519 $w=1.8e-07 $l=3e-07 $layer=POLY_cond $X=5.415 $Y=1.78 $X2=5.415
+ $Y2=1.48
r63 9 11 264.323 $w=1.8e-07 $l=6.8e-07 $layer=POLY_cond $X=5.415 $Y=1.78
+ $X2=5.415 $Y2=2.46
r64 6 21 16.6649 $w=5.64e-07 $l=4.77651e-07 $layer=POLY_cond $X=5.22 $Y=1.09
+ $X2=5.415 $Y2=1.48
r65 6 8 128.533 $w=1.5e-07 $l=4e-07 $layer=POLY_cond $X=5.22 $Y=1.09 $X2=5.22
+ $Y2=0.69
r66 4 6 35.9247 $w=5.64e-07 $l=1.06066e-07 $layer=POLY_cond $X=5.145 $Y=1.165
+ $X2=5.22 $Y2=1.09
r67 4 5 143.574 $w=1.5e-07 $l=2.8e-07 $layer=POLY_cond $X=5.145 $Y=1.165
+ $X2=4.865 $Y2=1.165
r68 1 5 26.9307 $w=1.5e-07 $l=1.06066e-07 $layer=POLY_cond $X=4.79 $Y=1.09
+ $X2=4.865 $Y2=1.165
r69 1 3 128.533 $w=1.5e-07 $l=4e-07 $layer=POLY_cond $X=4.79 $Y=1.09 $X2=4.79
+ $Y2=0.69
.ends

.subckt PM_SKY130_FD_SC_MS__A2111O_4%A1 3 7 11 15 17 18 26
c52 11 0 1.47716e-19 $X=6.765 $Y=2.46
c53 3 0 5.55308e-20 $X=6.315 $Y=2.46
r54 26 27 8.31034 $w=3.19e-07 $l=5.5e-08 $layer=POLY_cond $X=6.765 $Y=1.615
+ $X2=6.82 $Y2=1.615
r55 24 26 47.5956 $w=3.19e-07 $l=3.15e-07 $layer=POLY_cond $X=6.45 $Y=1.615
+ $X2=6.765 $Y2=1.615
r56 22 24 9.06583 $w=3.19e-07 $l=6e-08 $layer=POLY_cond $X=6.39 $Y=1.615
+ $X2=6.45 $Y2=1.615
r57 21 22 11.3323 $w=3.19e-07 $l=7.5e-08 $layer=POLY_cond $X=6.315 $Y=1.615
+ $X2=6.39 $Y2=1.615
r58 17 18 17.8105 $w=3.28e-07 $l=5.1e-07 $layer=LI1_cond $X=6.45 $Y=1.615
+ $X2=6.96 $Y2=1.615
r59 17 24 145.28 $w=1.7e-07 $l=1.7e-07 $layer=licon1_POLY $count=1 $X=6.45
+ $Y=1.615 $X2=6.45 $Y2=1.615
r60 13 27 20.418 $w=1.5e-07 $l=1.65e-07 $layer=POLY_cond $X=6.82 $Y=1.45
+ $X2=6.82 $Y2=1.615
r61 13 15 389.702 $w=1.5e-07 $l=7.6e-07 $layer=POLY_cond $X=6.82 $Y=1.45
+ $X2=6.82 $Y2=0.69
r62 9 26 16.143 $w=1.8e-07 $l=1.65e-07 $layer=POLY_cond $X=6.765 $Y=1.78
+ $X2=6.765 $Y2=1.615
r63 9 11 264.323 $w=1.8e-07 $l=6.8e-07 $layer=POLY_cond $X=6.765 $Y=1.78
+ $X2=6.765 $Y2=2.46
r64 5 22 20.418 $w=1.5e-07 $l=1.65e-07 $layer=POLY_cond $X=6.39 $Y=1.45 $X2=6.39
+ $Y2=1.615
r65 5 7 389.702 $w=1.5e-07 $l=7.6e-07 $layer=POLY_cond $X=6.39 $Y=1.45 $X2=6.39
+ $Y2=0.69
r66 1 21 16.143 $w=1.8e-07 $l=1.65e-07 $layer=POLY_cond $X=6.315 $Y=1.78
+ $X2=6.315 $Y2=1.615
r67 1 3 264.323 $w=1.8e-07 $l=6.8e-07 $layer=POLY_cond $X=6.315 $Y=1.78
+ $X2=6.315 $Y2=2.46
.ends

.subckt PM_SKY130_FD_SC_MS__A2111O_4%A2 3 7 11 15 17 18 28
c45 28 0 7.29804e-20 $X=7.68 $Y=1.425
c46 7 0 1.83628e-19 $X=7.25 $Y=0.69
c47 3 0 1.47716e-19 $X=7.215 $Y=2.46
r48 27 28 2.62292 $w=3.3e-07 $l=1.5e-08 $layer=POLY_cond $X=7.665 $Y=1.425
+ $X2=7.68 $Y2=1.425
r49 25 27 44.5896 $w=3.3e-07 $l=2.55e-07 $layer=POLY_cond $X=7.41 $Y=1.425
+ $X2=7.665 $Y2=1.425
r50 25 26 145.28 $w=1.7e-07 $l=1.7e-07 $layer=licon1_POLY $count=1 $X=7.41
+ $Y=1.425 $X2=7.41 $Y2=1.425
r51 23 25 27.9778 $w=3.3e-07 $l=1.6e-07 $layer=POLY_cond $X=7.25 $Y=1.425
+ $X2=7.41 $Y2=1.425
r52 21 23 6.12014 $w=3.3e-07 $l=3.5e-08 $layer=POLY_cond $X=7.215 $Y=1.425
+ $X2=7.25 $Y2=1.425
r53 17 18 11.0407 $w=5.18e-07 $l=4.8e-07 $layer=LI1_cond $X=7.44 $Y=1.52
+ $X2=7.92 $Y2=1.52
r54 17 26 0.690045 $w=5.18e-07 $l=3e-08 $layer=LI1_cond $X=7.44 $Y=1.52 $X2=7.41
+ $Y2=1.52
r55 13 28 21.2229 $w=1.5e-07 $l=1.65e-07 $layer=POLY_cond $X=7.68 $Y=1.26
+ $X2=7.68 $Y2=1.425
r56 13 15 292.277 $w=1.5e-07 $l=5.7e-07 $layer=POLY_cond $X=7.68 $Y=1.26
+ $X2=7.68 $Y2=0.69
r57 9 27 16.9318 $w=1.8e-07 $l=1.65e-07 $layer=POLY_cond $X=7.665 $Y=1.59
+ $X2=7.665 $Y2=1.425
r58 9 11 338.177 $w=1.8e-07 $l=8.7e-07 $layer=POLY_cond $X=7.665 $Y=1.59
+ $X2=7.665 $Y2=2.46
r59 5 23 21.2229 $w=1.5e-07 $l=1.65e-07 $layer=POLY_cond $X=7.25 $Y=1.26
+ $X2=7.25 $Y2=1.425
r60 5 7 292.277 $w=1.5e-07 $l=5.7e-07 $layer=POLY_cond $X=7.25 $Y=1.26 $X2=7.25
+ $Y2=0.69
r61 1 21 16.9318 $w=1.8e-07 $l=1.65e-07 $layer=POLY_cond $X=7.215 $Y=1.59
+ $X2=7.215 $Y2=1.425
r62 1 3 338.177 $w=1.8e-07 $l=8.7e-07 $layer=POLY_cond $X=7.215 $Y=1.59
+ $X2=7.215 $Y2=2.46
.ends

.subckt PM_SKY130_FD_SC_MS__A2111O_4%VPWR 1 2 3 4 5 18 22 26 32 36 39 40 42 43
+ 45 46 47 59 66 73 74 77 80
c100 32 0 1.88192e-19 $X=6.54 $Y=2.4
r101 80 81 9.3 $w=1.7e-07 $l=1.7e-07 $layer=mcon $count=1 $X=7.44 $Y=3.33
+ $X2=7.44 $Y2=3.33
r102 77 78 9.3 $w=1.7e-07 $l=1.7e-07 $layer=mcon $count=1 $X=6.48 $Y=3.33
+ $X2=6.48 $Y2=3.33
r103 74 81 0.133793 $w=4.9e-07 $l=4.8e-07 $layer=MET1_cond $X=7.92 $Y=3.33
+ $X2=7.44 $Y2=3.33
r104 73 74 9.3 $w=1.7e-07 $l=1.7e-07 $layer=mcon $count=1 $X=7.92 $Y=3.33
+ $X2=7.92 $Y2=3.33
r105 71 80 7.02821 $w=1.7e-07 $l=1.25e-07 $layer=LI1_cond $X=7.525 $Y=3.33
+ $X2=7.4 $Y2=3.33
r106 71 73 25.7701 $w=1.68e-07 $l=3.95e-07 $layer=LI1_cond $X=7.525 $Y=3.33
+ $X2=7.92 $Y2=3.33
r107 70 81 0.133793 $w=4.9e-07 $l=4.8e-07 $layer=MET1_cond $X=6.96 $Y=3.33
+ $X2=7.44 $Y2=3.33
r108 70 78 0.133793 $w=4.9e-07 $l=4.8e-07 $layer=MET1_cond $X=6.96 $Y=3.33
+ $X2=6.48 $Y2=3.33
r109 69 70 9.3 $w=1.7e-07 $l=1.7e-07 $layer=mcon $count=1 $X=6.96 $Y=3.33
+ $X2=6.96 $Y2=3.33
r110 67 77 8.61065 $w=1.7e-07 $l=1.65e-07 $layer=LI1_cond $X=6.705 $Y=3.33
+ $X2=6.54 $Y2=3.33
r111 67 69 16.6364 $w=1.68e-07 $l=2.55e-07 $layer=LI1_cond $X=6.705 $Y=3.33
+ $X2=6.96 $Y2=3.33
r112 66 80 7.02821 $w=1.7e-07 $l=1.25e-07 $layer=LI1_cond $X=7.275 $Y=3.33
+ $X2=7.4 $Y2=3.33
r113 66 69 20.5508 $w=1.68e-07 $l=3.15e-07 $layer=LI1_cond $X=7.275 $Y=3.33
+ $X2=6.96 $Y2=3.33
r114 65 78 0.133793 $w=4.9e-07 $l=4.8e-07 $layer=MET1_cond $X=6 $Y=3.33 $X2=6.48
+ $Y2=3.33
r115 64 65 2.325 $w=1.7e-07 $l=6.8e-07 $layer=mcon $count=4 $X=6 $Y=3.33 $X2=6
+ $Y2=3.33
r116 61 64 219.209 $w=1.68e-07 $l=3.36e-06 $layer=LI1_cond $X=2.64 $Y=3.33 $X2=6
+ $Y2=3.33
r117 61 62 2.325 $w=1.7e-07 $l=6.8e-07 $layer=mcon $count=4 $X=2.64 $Y=3.33
+ $X2=2.64 $Y2=3.33
r118 59 77 8.61065 $w=1.7e-07 $l=1.65e-07 $layer=LI1_cond $X=6.375 $Y=3.33
+ $X2=6.54 $Y2=3.33
r119 59 64 24.4652 $w=1.68e-07 $l=3.75e-07 $layer=LI1_cond $X=6.375 $Y=3.33
+ $X2=6 $Y2=3.33
r120 58 62 0.133793 $w=4.9e-07 $l=4.8e-07 $layer=MET1_cond $X=2.16 $Y=3.33
+ $X2=2.64 $Y2=3.33
r121 57 58 4.65 $w=1.7e-07 $l=3.4e-07 $layer=mcon $count=2 $X=2.16 $Y=3.33
+ $X2=2.16 $Y2=3.33
r122 55 58 0.267585 $w=4.9e-07 $l=9.6e-07 $layer=MET1_cond $X=1.2 $Y=3.33
+ $X2=2.16 $Y2=3.33
r123 54 55 4.65 $w=1.7e-07 $l=3.4e-07 $layer=mcon $count=2 $X=1.2 $Y=3.33
+ $X2=1.2 $Y2=3.33
r124 51 55 0.267585 $w=4.9e-07 $l=9.6e-07 $layer=MET1_cond $X=0.24 $Y=3.33
+ $X2=1.2 $Y2=3.33
r125 50 51 9.3 $w=1.7e-07 $l=1.7e-07 $layer=mcon $count=1 $X=0.24 $Y=3.33
+ $X2=0.24 $Y2=3.33
r126 47 65 0.535171 $w=4.9e-07 $l=1.92e-06 $layer=MET1_cond $X=4.08 $Y=3.33
+ $X2=6 $Y2=3.33
r127 47 62 0.401378 $w=4.9e-07 $l=1.44e-06 $layer=MET1_cond $X=4.08 $Y=3.33
+ $X2=2.64 $Y2=3.33
r128 45 57 6.85027 $w=1.68e-07 $l=1.05e-07 $layer=LI1_cond $X=2.265 $Y=3.33
+ $X2=2.16 $Y2=3.33
r129 45 46 7.02821 $w=1.7e-07 $l=1.25e-07 $layer=LI1_cond $X=2.265 $Y=3.33
+ $X2=2.39 $Y2=3.33
r130 44 61 8.15508 $w=1.68e-07 $l=1.25e-07 $layer=LI1_cond $X=2.515 $Y=3.33
+ $X2=2.64 $Y2=3.33
r131 44 46 7.02821 $w=1.7e-07 $l=1.25e-07 $layer=LI1_cond $X=2.515 $Y=3.33
+ $X2=2.39 $Y2=3.33
r132 42 54 10.7647 $w=1.68e-07 $l=1.65e-07 $layer=LI1_cond $X=1.365 $Y=3.33
+ $X2=1.2 $Y2=3.33
r133 42 43 5.16603 $w=1.7e-07 $l=8.5e-08 $layer=LI1_cond $X=1.365 $Y=3.33
+ $X2=1.45 $Y2=3.33
r134 41 57 40.7754 $w=1.68e-07 $l=6.25e-07 $layer=LI1_cond $X=1.535 $Y=3.33
+ $X2=2.16 $Y2=3.33
r135 41 43 5.16603 $w=1.7e-07 $l=8.5e-08 $layer=LI1_cond $X=1.535 $Y=3.33
+ $X2=1.45 $Y2=3.33
r136 39 50 9.45989 $w=1.68e-07 $l=1.45e-07 $layer=LI1_cond $X=0.385 $Y=3.33
+ $X2=0.24 $Y2=3.33
r137 39 40 7.02821 $w=1.7e-07 $l=1.25e-07 $layer=LI1_cond $X=0.385 $Y=3.33
+ $X2=0.51 $Y2=3.33
r138 38 54 36.861 $w=1.68e-07 $l=5.65e-07 $layer=LI1_cond $X=0.635 $Y=3.33
+ $X2=1.2 $Y2=3.33
r139 38 40 7.02821 $w=1.7e-07 $l=1.25e-07 $layer=LI1_cond $X=0.635 $Y=3.33
+ $X2=0.51 $Y2=3.33
r140 34 80 0.00168595 $w=2.5e-07 $l=8.5e-08 $layer=LI1_cond $X=7.4 $Y=3.245
+ $X2=7.4 $Y2=3.33
r141 34 36 36.4172 $w=2.48e-07 $l=7.9e-07 $layer=LI1_cond $X=7.4 $Y=3.245
+ $X2=7.4 $Y2=2.455
r142 30 77 0.89609 $w=3.3e-07 $l=8.5e-08 $layer=LI1_cond $X=6.54 $Y=3.245
+ $X2=6.54 $Y2=3.33
r143 30 32 29.5095 $w=3.28e-07 $l=8.45e-07 $layer=LI1_cond $X=6.54 $Y=3.245
+ $X2=6.54 $Y2=2.4
r144 26 29 38.2611 $w=2.48e-07 $l=8.3e-07 $layer=LI1_cond $X=2.39 $Y=1.985
+ $X2=2.39 $Y2=2.815
r145 24 46 0.00168595 $w=2.5e-07 $l=8.5e-08 $layer=LI1_cond $X=2.39 $Y=3.245
+ $X2=2.39 $Y2=3.33
r146 24 29 19.822 $w=2.48e-07 $l=4.3e-07 $layer=LI1_cond $X=2.39 $Y=3.245
+ $X2=2.39 $Y2=2.815
r147 20 43 1.34256 $w=1.7e-07 $l=8.5e-08 $layer=LI1_cond $X=1.45 $Y=3.245
+ $X2=1.45 $Y2=3.33
r148 20 22 61.3262 $w=1.68e-07 $l=9.4e-07 $layer=LI1_cond $X=1.45 $Y=3.245
+ $X2=1.45 $Y2=2.305
r149 16 40 0.00168595 $w=2.5e-07 $l=8.5e-08 $layer=LI1_cond $X=0.51 $Y=3.245
+ $X2=0.51 $Y2=3.33
r150 16 18 43.3319 $w=2.48e-07 $l=9.4e-07 $layer=LI1_cond $X=0.51 $Y=3.245
+ $X2=0.51 $Y2=2.305
r151 5 36 300 $w=1.7e-07 $l=5.58435e-07 $layer=licon1_PDIFF $count=2 $X=7.305
+ $Y=1.96 $X2=7.44 $Y2=2.455
r152 4 32 300 $w=1.7e-07 $l=5.02991e-07 $layer=licon1_PDIFF $count=2 $X=6.405
+ $Y=1.96 $X2=6.54 $Y2=2.4
r153 3 29 400 $w=1.7e-07 $l=1.04031e-06 $layer=licon1_PDIFF $count=1 $X=2.215
+ $Y=1.84 $X2=2.35 $Y2=2.815
r154 3 26 400 $w=1.7e-07 $l=2.01494e-07 $layer=licon1_PDIFF $count=1 $X=2.215
+ $Y=1.84 $X2=2.35 $Y2=1.985
r155 2 22 300 $w=1.7e-07 $l=5.28205e-07 $layer=licon1_PDIFF $count=2 $X=1.315
+ $Y=1.84 $X2=1.45 $Y2=2.305
r156 1 18 300 $w=1.7e-07 $l=5.23784e-07 $layer=licon1_PDIFF $count=2 $X=0.425
+ $Y=1.84 $X2=0.55 $Y2=2.305
.ends

.subckt PM_SKY130_FD_SC_MS__A2111O_4%X 1 2 3 4 13 14 15 16 19 23 27 29 33 39 43
+ 44 45 46
r76 45 46 8.42951 $w=5.23e-07 $l=3.7e-07 $layer=LI1_cond $X=0.387 $Y=1.295
+ $X2=0.387 $Y2=1.665
r77 42 46 3.07563 $w=5.23e-07 $l=1.35e-07 $layer=LI1_cond $X=0.387 $Y=1.8
+ $X2=0.387 $Y2=1.665
r78 41 45 3.7591 $w=5.23e-07 $l=1.65e-07 $layer=LI1_cond $X=0.387 $Y=1.13
+ $X2=0.387 $Y2=1.295
r79 37 39 20.5135 $w=2.48e-07 $l=4.45e-07 $layer=LI1_cond $X=2.32 $Y=0.96
+ $X2=2.32 $Y2=0.515
r80 33 35 28.9857 $w=3.28e-07 $l=8.3e-07 $layer=LI1_cond $X=1.9 $Y=1.985 $X2=1.9
+ $Y2=2.815
r81 31 33 0.523838 $w=3.28e-07 $l=1.5e-08 $layer=LI1_cond $X=1.9 $Y=1.97 $X2=1.9
+ $Y2=1.985
r82 30 44 7.02821 $w=1.7e-07 $l=1.25e-07 $layer=LI1_cond $X=1.665 $Y=1.045
+ $X2=1.54 $Y2=1.045
r83 29 37 7.14316 $w=1.7e-07 $l=1.62019e-07 $layer=LI1_cond $X=2.195 $Y=1.045
+ $X2=2.32 $Y2=0.96
r84 29 30 34.5775 $w=1.68e-07 $l=5.3e-07 $layer=LI1_cond $X=2.195 $Y=1.045
+ $X2=1.665 $Y2=1.045
r85 25 44 0.00168595 $w=2.5e-07 $l=8.5e-08 $layer=LI1_cond $X=1.54 $Y=0.96
+ $X2=1.54 $Y2=1.045
r86 25 27 20.5135 $w=2.48e-07 $l=4.45e-07 $layer=LI1_cond $X=1.54 $Y=0.96
+ $X2=1.54 $Y2=0.515
r87 24 43 8.61065 $w=1.7e-07 $l=1.65e-07 $layer=LI1_cond $X=1.165 $Y=1.885 $X2=1
+ $Y2=1.885
r88 23 31 7.76618 $w=1.7e-07 $l=2.03101e-07 $layer=LI1_cond $X=1.735 $Y=1.885
+ $X2=1.9 $Y2=1.97
r89 23 24 37.1872 $w=1.68e-07 $l=5.7e-07 $layer=LI1_cond $X=1.735 $Y=1.885
+ $X2=1.165 $Y2=1.885
r90 19 21 28.9857 $w=3.28e-07 $l=8.3e-07 $layer=LI1_cond $X=1 $Y=1.985 $X2=1
+ $Y2=2.815
r91 17 43 0.89609 $w=3.3e-07 $l=8.5e-08 $layer=LI1_cond $X=1 $Y=1.97 $X2=1
+ $Y2=1.885
r92 17 19 0.523838 $w=3.28e-07 $l=1.5e-08 $layer=LI1_cond $X=1 $Y=1.97 $X2=1
+ $Y2=1.985
r93 16 42 9.43933 $w=1.7e-07 $l=3.02529e-07 $layer=LI1_cond $X=0.65 $Y=1.885
+ $X2=0.387 $Y2=1.8
r94 15 43 8.61065 $w=1.7e-07 $l=1.65e-07 $layer=LI1_cond $X=0.835 $Y=1.885 $X2=1
+ $Y2=1.885
r95 15 16 12.0695 $w=1.68e-07 $l=1.85e-07 $layer=LI1_cond $X=0.835 $Y=1.885
+ $X2=0.65 $Y2=1.885
r96 14 41 9.43933 $w=1.7e-07 $l=3.02529e-07 $layer=LI1_cond $X=0.65 $Y=1.045
+ $X2=0.387 $Y2=1.13
r97 13 44 7.02821 $w=1.7e-07 $l=1.25e-07 $layer=LI1_cond $X=1.415 $Y=1.045
+ $X2=1.54 $Y2=1.045
r98 13 14 49.9091 $w=1.68e-07 $l=7.65e-07 $layer=LI1_cond $X=1.415 $Y=1.045
+ $X2=0.65 $Y2=1.045
r99 4 35 400 $w=1.7e-07 $l=1.04031e-06 $layer=licon1_PDIFF $count=1 $X=1.765
+ $Y=1.84 $X2=1.9 $Y2=2.815
r100 4 33 400 $w=1.7e-07 $l=2.01494e-07 $layer=licon1_PDIFF $count=1 $X=1.765
+ $Y=1.84 $X2=1.9 $Y2=1.985
r101 3 21 400 $w=1.7e-07 $l=1.04031e-06 $layer=licon1_PDIFF $count=1 $X=0.865
+ $Y=1.84 $X2=1 $Y2=2.815
r102 3 19 400 $w=1.7e-07 $l=2.01494e-07 $layer=licon1_PDIFF $count=1 $X=0.865
+ $Y=1.84 $X2=1 $Y2=1.985
r103 2 39 91 $w=1.7e-07 $l=2.03286e-07 $layer=licon1_NDIFF $count=2 $X=2.22
+ $Y=0.37 $X2=2.36 $Y2=0.515
r104 1 27 91 $w=1.7e-07 $l=2.03286e-07 $layer=licon1_NDIFF $count=2 $X=1.36
+ $Y=0.37 $X2=1.5 $Y2=0.515
.ends

.subckt PM_SKY130_FD_SC_MS__A2111O_4%A_549_392# 1 2 3 12 14 15 18 22 26 28
r46 24 26 15.7151 $w=3.28e-07 $l=4.5e-07 $layer=LI1_cond $X=4.67 $Y=2.905
+ $X2=4.67 $Y2=2.455
r47 23 28 8.61065 $w=1.7e-07 $l=1.65e-07 $layer=LI1_cond $X=3.935 $Y=2.99
+ $X2=3.77 $Y2=2.99
r48 22 24 7.76618 $w=1.7e-07 $l=2.03101e-07 $layer=LI1_cond $X=4.505 $Y=2.99
+ $X2=4.67 $Y2=2.905
r49 22 23 37.1872 $w=1.68e-07 $l=5.7e-07 $layer=LI1_cond $X=4.505 $Y=2.99
+ $X2=3.935 $Y2=2.99
r50 18 21 24.4458 $w=3.28e-07 $l=7e-07 $layer=LI1_cond $X=3.77 $Y=2.115 $X2=3.77
+ $Y2=2.815
r51 16 28 0.89609 $w=3.3e-07 $l=8.5e-08 $layer=LI1_cond $X=3.77 $Y=2.905
+ $X2=3.77 $Y2=2.99
r52 16 21 3.14303 $w=3.28e-07 $l=9e-08 $layer=LI1_cond $X=3.77 $Y=2.905 $X2=3.77
+ $Y2=2.815
r53 14 28 8.61065 $w=1.7e-07 $l=1.65e-07 $layer=LI1_cond $X=3.605 $Y=2.99
+ $X2=3.77 $Y2=2.99
r54 14 15 37.1872 $w=1.68e-07 $l=5.7e-07 $layer=LI1_cond $X=3.605 $Y=2.99
+ $X2=3.035 $Y2=2.99
r55 10 15 7.76618 $w=1.7e-07 $l=2.03101e-07 $layer=LI1_cond $X=2.87 $Y=2.905
+ $X2=3.035 $Y2=2.99
r56 10 12 15.7151 $w=3.28e-07 $l=4.5e-07 $layer=LI1_cond $X=2.87 $Y=2.905
+ $X2=2.87 $Y2=2.455
r57 3 26 300 $w=1.7e-07 $l=5.58435e-07 $layer=licon1_PDIFF $count=2 $X=4.535
+ $Y=1.96 $X2=4.67 $Y2=2.455
r58 2 21 400 $w=1.7e-07 $l=9.20027e-07 $layer=licon1_PDIFF $count=1 $X=3.635
+ $Y=1.96 $X2=3.77 $Y2=2.815
r59 2 18 400 $w=1.7e-07 $l=2.12014e-07 $layer=licon1_PDIFF $count=1 $X=3.635
+ $Y=1.96 $X2=3.77 $Y2=2.115
r60 1 12 300 $w=1.7e-07 $l=5.53986e-07 $layer=licon1_PDIFF $count=2 $X=2.745
+ $Y=1.96 $X2=2.87 $Y2=2.455
.ends

.subckt PM_SKY130_FD_SC_MS__A2111O_4%A_817_392# 1 2 9 14 16
c25 16 0 5.55308e-20 $X=5.64 $Y=2.115
c26 14 0 8.37567e-20 $X=4.22 $Y=2.115
r27 10 14 3.40825 $w=1.7e-07 $l=8.5e-08 $layer=LI1_cond $X=4.305 $Y=2.035
+ $X2=4.22 $Y2=2.035
r28 9 16 5.12568 $w=1.7e-07 $l=1.65e-07 $layer=LI1_cond $X=5.475 $Y=2.035
+ $X2=5.64 $Y2=2.035
r29 9 10 76.3316 $w=1.68e-07 $l=1.17e-06 $layer=LI1_cond $X=5.475 $Y=2.035
+ $X2=4.305 $Y2=2.035
r30 2 16 300 $w=1.7e-07 $l=2.12014e-07 $layer=licon1_PDIFF $count=2 $X=5.505
+ $Y=1.96 $X2=5.64 $Y2=2.115
r31 1 14 300 $w=1.7e-07 $l=2.12014e-07 $layer=licon1_PDIFF $count=2 $X=4.085
+ $Y=1.96 $X2=4.22 $Y2=2.115
.ends

.subckt PM_SKY130_FD_SC_MS__A2111O_4%A_1013_392# 1 2 3 4 15 17 18 19 23 27 29 31
+ 33 38
c53 27 0 2.95431e-19 $X=6.99 $Y=2.815
c54 19 0 8.35716e-20 $X=6.09 $Y=2.12
r55 31 40 2.6405 $w=3.3e-07 $l=8.5e-08 $layer=LI1_cond $X=7.89 $Y=2.12 $X2=7.89
+ $Y2=2.035
r56 31 33 24.2711 $w=3.28e-07 $l=6.95e-07 $layer=LI1_cond $X=7.89 $Y=2.12
+ $X2=7.89 $Y2=2.815
r57 30 38 5.16603 $w=1.7e-07 $l=8.5e-08 $layer=LI1_cond $X=7.075 $Y=2.035
+ $X2=6.99 $Y2=2.035
r58 29 40 5.12568 $w=1.7e-07 $l=1.65e-07 $layer=LI1_cond $X=7.725 $Y=2.035
+ $X2=7.89 $Y2=2.035
r59 29 30 42.4064 $w=1.68e-07 $l=6.5e-07 $layer=LI1_cond $X=7.725 $Y=2.035
+ $X2=7.075 $Y2=2.035
r60 25 38 1.34256 $w=1.7e-07 $l=8.5e-08 $layer=LI1_cond $X=6.99 $Y=2.12 $X2=6.99
+ $Y2=2.035
r61 25 27 45.3422 $w=1.68e-07 $l=6.95e-07 $layer=LI1_cond $X=6.99 $Y=2.12
+ $X2=6.99 $Y2=2.815
r62 24 36 3.40825 $w=1.7e-07 $l=8.5e-08 $layer=LI1_cond $X=6.175 $Y=2.035
+ $X2=6.09 $Y2=2.035
r63 23 38 5.16603 $w=1.7e-07 $l=8.5e-08 $layer=LI1_cond $X=6.905 $Y=2.035
+ $X2=6.99 $Y2=2.035
r64 23 24 47.6257 $w=1.68e-07 $l=7.3e-07 $layer=LI1_cond $X=6.905 $Y=2.035
+ $X2=6.175 $Y2=2.035
r65 20 22 5.87166 $w=1.68e-07 $l=9e-08 $layer=LI1_cond $X=6.09 $Y=2.905 $X2=6.09
+ $Y2=2.815
r66 19 36 3.40825 $w=1.7e-07 $l=8.5e-08 $layer=LI1_cond $X=6.09 $Y=2.12 $X2=6.09
+ $Y2=2.035
r67 19 22 45.3422 $w=1.68e-07 $l=6.95e-07 $layer=LI1_cond $X=6.09 $Y=2.12
+ $X2=6.09 $Y2=2.815
r68 17 20 6.81649 $w=1.7e-07 $l=1.20208e-07 $layer=LI1_cond $X=6.005 $Y=2.99
+ $X2=6.09 $Y2=2.905
r69 17 18 45.6684 $w=1.68e-07 $l=7e-07 $layer=LI1_cond $X=6.005 $Y=2.99
+ $X2=5.305 $Y2=2.99
r70 13 18 7.36005 $w=1.7e-07 $l=1.77482e-07 $layer=LI1_cond $X=5.165 $Y=2.905
+ $X2=5.305 $Y2=2.99
r71 13 15 18.5214 $w=2.78e-07 $l=4.5e-07 $layer=LI1_cond $X=5.165 $Y=2.905
+ $X2=5.165 $Y2=2.455
r72 4 40 400 $w=1.7e-07 $l=2.12014e-07 $layer=licon1_PDIFF $count=1 $X=7.755
+ $Y=1.96 $X2=7.89 $Y2=2.115
r73 4 33 400 $w=1.7e-07 $l=9.20027e-07 $layer=licon1_PDIFF $count=1 $X=7.755
+ $Y=1.96 $X2=7.89 $Y2=2.815
r74 3 38 400 $w=1.7e-07 $l=2.12014e-07 $layer=licon1_PDIFF $count=1 $X=6.855
+ $Y=1.96 $X2=6.99 $Y2=2.115
r75 3 27 400 $w=1.7e-07 $l=9.20027e-07 $layer=licon1_PDIFF $count=1 $X=6.855
+ $Y=1.96 $X2=6.99 $Y2=2.815
r76 2 36 400 $w=1.7e-07 $l=2.12014e-07 $layer=licon1_PDIFF $count=1 $X=5.955
+ $Y=1.96 $X2=6.09 $Y2=2.115
r77 2 22 400 $w=1.7e-07 $l=9.20027e-07 $layer=licon1_PDIFF $count=1 $X=5.955
+ $Y=1.96 $X2=6.09 $Y2=2.815
r78 1 15 300 $w=1.7e-07 $l=5.53986e-07 $layer=licon1_PDIFF $count=2 $X=5.065
+ $Y=1.96 $X2=5.19 $Y2=2.455
.ends

.subckt PM_SKY130_FD_SC_MS__A2111O_4%VGND 1 2 3 4 5 6 7 24 28 30 34 36 40 44 48
+ 52 55 56 57 58 59 68 73 78 85 86 89 92 95 98 101
r114 101 102 9.3 $w=1.7e-07 $l=1.7e-07 $layer=mcon $count=1 $X=7.44 $Y=0
+ $X2=7.44 $Y2=0
r115 98 99 4.65 $w=1.7e-07 $l=3.4e-07 $layer=mcon $count=2 $X=5.52 $Y=0 $X2=5.52
+ $Y2=0
r116 95 96 9.3 $w=1.7e-07 $l=1.7e-07 $layer=mcon $count=1 $X=4.56 $Y=0 $X2=4.56
+ $Y2=0
r117 92 93 4.65 $w=1.7e-07 $l=3.4e-07 $layer=mcon $count=2 $X=3.6 $Y=0 $X2=3.6
+ $Y2=0
r118 90 93 0.267585 $w=4.9e-07 $l=9.6e-07 $layer=MET1_cond $X=2.64 $Y=0 $X2=3.6
+ $Y2=0
r119 89 90 4.65 $w=1.7e-07 $l=3.4e-07 $layer=mcon $count=2 $X=2.64 $Y=0 $X2=2.64
+ $Y2=0
r120 86 102 0.133793 $w=4.9e-07 $l=4.8e-07 $layer=MET1_cond $X=7.92 $Y=0
+ $X2=7.44 $Y2=0
r121 85 86 9.3 $w=1.7e-07 $l=1.7e-07 $layer=mcon $count=1 $X=7.92 $Y=0 $X2=7.92
+ $Y2=0
r122 83 101 8.61065 $w=1.7e-07 $l=1.65e-07 $layer=LI1_cond $X=7.63 $Y=0
+ $X2=7.465 $Y2=0
r123 83 85 18.9198 $w=1.68e-07 $l=2.9e-07 $layer=LI1_cond $X=7.63 $Y=0 $X2=7.92
+ $Y2=0
r124 82 102 0.133793 $w=4.9e-07 $l=4.8e-07 $layer=MET1_cond $X=6.96 $Y=0
+ $X2=7.44 $Y2=0
r125 82 99 0.401378 $w=4.9e-07 $l=1.44e-06 $layer=MET1_cond $X=6.96 $Y=0
+ $X2=5.52 $Y2=0
r126 81 82 4.65 $w=1.7e-07 $l=3.4e-07 $layer=mcon $count=2 $X=6.96 $Y=0 $X2=6.96
+ $Y2=0
r127 79 98 8.61065 $w=1.7e-07 $l=1.65e-07 $layer=LI1_cond $X=5.6 $Y=0 $X2=5.435
+ $Y2=0
r128 79 81 88.7273 $w=1.68e-07 $l=1.36e-06 $layer=LI1_cond $X=5.6 $Y=0 $X2=6.96
+ $Y2=0
r129 78 101 8.61065 $w=1.7e-07 $l=1.65e-07 $layer=LI1_cond $X=7.3 $Y=0 $X2=7.465
+ $Y2=0
r130 78 81 22.1818 $w=1.68e-07 $l=3.4e-07 $layer=LI1_cond $X=7.3 $Y=0 $X2=6.96
+ $Y2=0
r131 77 99 0.133793 $w=4.9e-07 $l=4.8e-07 $layer=MET1_cond $X=5.04 $Y=0 $X2=5.52
+ $Y2=0
r132 77 96 0.133793 $w=4.9e-07 $l=4.8e-07 $layer=MET1_cond $X=5.04 $Y=0 $X2=4.56
+ $Y2=0
r133 76 77 9.3 $w=1.7e-07 $l=1.7e-07 $layer=mcon $count=1 $X=5.04 $Y=0 $X2=5.04
+ $Y2=0
r134 74 95 8.79175 $w=1.7e-07 $l=1.7e-07 $layer=LI1_cond $X=4.74 $Y=0 $X2=4.57
+ $Y2=0
r135 74 76 19.5722 $w=1.68e-07 $l=3e-07 $layer=LI1_cond $X=4.74 $Y=0 $X2=5.04
+ $Y2=0
r136 73 98 8.61065 $w=1.7e-07 $l=1.65e-07 $layer=LI1_cond $X=5.27 $Y=0 $X2=5.435
+ $Y2=0
r137 73 76 15.0053 $w=1.68e-07 $l=2.3e-07 $layer=LI1_cond $X=5.27 $Y=0 $X2=5.04
+ $Y2=0
r138 69 92 8.79175 $w=1.7e-07 $l=1.7e-07 $layer=LI1_cond $X=3.87 $Y=0 $X2=3.7
+ $Y2=0
r139 69 71 13.7005 $w=1.68e-07 $l=2.1e-07 $layer=LI1_cond $X=3.87 $Y=0 $X2=4.08
+ $Y2=0