* File: sky130_fd_sc_ms__nor4bb_4.pex.spice
* Created: Fri Aug 28 17:50:59 2020
* Program "Calibre xRC"
* Version "v2018.4_34.26"
* Nominal Temperature: 27C
* Circuit Temperature: 27C
* 
.subckt PM_SKY130_FD_SC_MS__NOR4BB_4%B 1 3 7 11 15 19 23 27 31 33 38 40 45 52 63
c124 38 0 1.55011e-19 $X=2.72 $Y=1.795
c125 15 0 1.13165e-19 $X=3 $Y=2.305
c126 3 0 1.72297e-19 $X=0.505 $Y=2.4
r127 62 63 2.62292 $w=3.3e-07 $l=1.5e-08 $layer=POLY_cond $X=3.95 $Y=1.42
+ $X2=3.965 $Y2=1.42
r128 59 60 2.62292 $w=3.3e-07 $l=1.5e-08 $layer=POLY_cond $X=3.45 $Y=1.42
+ $X2=3.465 $Y2=1.42
r129 55 57 2.62292 $w=3.3e-07 $l=1.5e-08 $layer=POLY_cond $X=2.985 $Y=1.42 $X2=3
+ $Y2=1.42
r130 52 69 6.51381 $w=2.28e-07 $l=1.3e-07 $layer=LI1_cond $X=1.2 $Y=1.665
+ $X2=1.2 $Y2=1.795
r131 46 62 34.0979 $w=3.3e-07 $l=1.95e-07 $layer=POLY_cond $X=3.755 $Y=1.42
+ $X2=3.95 $Y2=1.42
r132 46 60 50.7098 $w=3.3e-07 $l=2.9e-07 $layer=POLY_cond $X=3.755 $Y=1.42
+ $X2=3.465 $Y2=1.42
r133 45 46 96.8533 $w=1.7e-07 $l=2.55e-07 $layer=licon1_POLY $count=1 $X=3.755
+ $Y=1.42 $X2=3.755 $Y2=1.42
r134 43 59 65.573 $w=3.3e-07 $l=3.75e-07 $layer=POLY_cond $X=3.075 $Y=1.42
+ $X2=3.45 $Y2=1.42
r135 43 57 13.1146 $w=3.3e-07 $l=7.5e-08 $layer=POLY_cond $X=3.075 $Y=1.42 $X2=3
+ $Y2=1.42
r136 42 45 23.7473 $w=3.28e-07 $l=6.8e-07 $layer=LI1_cond $X=3.075 $Y=1.42
+ $X2=3.755 $Y2=1.42
r137 42 43 96.8533 $w=1.7e-07 $l=2.55e-07 $layer=licon1_POLY $count=1 $X=3.075
+ $Y=1.42 $X2=3.075 $Y2=1.42
r138 40 50 24.4652 $w=1.68e-07 $l=3.75e-07 $layer=LI1_cond $X=2.805 $Y=1.42
+ $X2=2.805 $Y2=1.795
r139 40 42 6.46067 $w=3.28e-07 $l=1.85e-07 $layer=LI1_cond $X=2.89 $Y=1.42
+ $X2=3.075 $Y2=1.42
r140 39 69 2.50919 $w=1.7e-07 $l=1.15e-07 $layer=LI1_cond $X=1.315 $Y=1.795
+ $X2=1.2 $Y2=1.795
r141 38 50 0.716491 $w=1.7e-07 $l=8.5e-08 $layer=LI1_cond $X=2.72 $Y=1.795
+ $X2=2.805 $Y2=1.795
r142 38 39 91.6631 $w=1.68e-07 $l=1.405e-06 $layer=LI1_cond $X=2.72 $Y=1.795
+ $X2=1.315 $Y2=1.795
r143 35 36 145.28 $w=1.7e-07 $l=1.7e-07 $layer=licon1_POLY $count=1 $X=0.43
+ $Y=1.485 $X2=0.43 $Y2=1.485
r144 33 52 9.01912 $w=2.28e-07 $l=1.8e-07 $layer=LI1_cond $X=1.2 $Y=1.485
+ $X2=1.2 $Y2=1.665
r145 33 35 22.8742 $w=3.28e-07 $l=6.55e-07 $layer=LI1_cond $X=1.085 $Y=1.485
+ $X2=0.43 $Y2=1.485
r146 29 63 21.2229 $w=1.5e-07 $l=1.65e-07 $layer=POLY_cond $X=3.965 $Y=1.255
+ $X2=3.965 $Y2=1.42
r147 29 31 264.074 $w=1.5e-07 $l=5.15e-07 $layer=POLY_cond $X=3.965 $Y=1.255
+ $X2=3.965 $Y2=0.74
r148 25 62 16.9318 $w=1.8e-07 $l=1.65e-07 $layer=POLY_cond $X=3.95 $Y=1.585
+ $X2=3.95 $Y2=1.42
r149 25 27 279.871 $w=1.8e-07 $l=7.2e-07 $layer=POLY_cond $X=3.95 $Y=1.585
+ $X2=3.95 $Y2=2.305
r150 21 60 21.2229 $w=1.5e-07 $l=1.65e-07 $layer=POLY_cond $X=3.465 $Y=1.255
+ $X2=3.465 $Y2=1.42
r151 21 23 264.074 $w=1.5e-07 $l=5.15e-07 $layer=POLY_cond $X=3.465 $Y=1.255
+ $X2=3.465 $Y2=0.74
r152 17 59 16.9318 $w=1.8e-07 $l=1.65e-07 $layer=POLY_cond $X=3.45 $Y=1.585
+ $X2=3.45 $Y2=1.42
r153 17 19 279.871 $w=1.8e-07 $l=7.2e-07 $layer=POLY_cond $X=3.45 $Y=1.585
+ $X2=3.45 $Y2=2.305
r154 13 57 16.9318 $w=1.8e-07 $l=1.65e-07 $layer=POLY_cond $X=3 $Y=1.585 $X2=3
+ $Y2=1.42
r155 13 15 279.871 $w=1.8e-07 $l=7.2e-07 $layer=POLY_cond $X=3 $Y=1.585 $X2=3
+ $Y2=2.305
r156 9 55 21.2229 $w=1.5e-07 $l=1.65e-07 $layer=POLY_cond $X=2.985 $Y=1.255
+ $X2=2.985 $Y2=1.42
r157 9 11 264.074 $w=1.5e-07 $l=5.15e-07 $layer=POLY_cond $X=2.985 $Y=1.255
+ $X2=2.985 $Y2=0.74
r158 5 36 38.7839 $w=3.5e-07 $l=2.14173e-07 $layer=POLY_cond $X=0.565 $Y=1.32
+ $X2=0.452 $Y2=1.485
r159 5 7 297.404 $w=1.5e-07 $l=5.8e-07 $layer=POLY_cond $X=0.565 $Y=1.32
+ $X2=0.565 $Y2=0.74
r160 1 36 34.0572 $w=3.5e-07 $l=1.89658e-07 $layer=POLY_cond $X=0.505 $Y=1.65
+ $X2=0.452 $Y2=1.485
r161 1 3 291.532 $w=1.8e-07 $l=7.5e-07 $layer=POLY_cond $X=0.505 $Y=1.65
+ $X2=0.505 $Y2=2.4
.ends

.subckt PM_SKY130_FD_SC_MS__NOR4BB_4%A 3 5 7 10 12 14 17 19 21 24 26 28 29 30 31
+ 32 35 38
c98 35 0 3.18363e-20 $X=2.07 $Y=1.385
c99 10 0 1.53462e-19 $X=1.505 $Y=2.4
c100 3 0 3.04293e-19 $X=1.005 $Y=2.4
r101 45 47 0.732523 $w=3.29e-07 $l=5e-09 $layer=POLY_cond $X=1.99 $Y=1.385
+ $X2=1.995 $Y2=1.385
r102 45 46 72.64 $w=1.7e-07 $l=3.4e-07 $layer=licon1_POLY $count=2 $X=1.99
+ $Y=1.385 $X2=1.99 $Y2=1.385
r103 43 45 5.12766 $w=3.29e-07 $l=3.5e-08 $layer=POLY_cond $X=1.955 $Y=1.385
+ $X2=1.99 $Y2=1.385
r104 42 43 63.7295 $w=3.29e-07 $l=4.35e-07 $layer=POLY_cond $X=1.52 $Y=1.385
+ $X2=1.955 $Y2=1.385
r105 41 42 2.19757 $w=3.29e-07 $l=1.5e-08 $layer=POLY_cond $X=1.505 $Y=1.385
+ $X2=1.52 $Y2=1.385
r106 40 41 73.2523 $w=3.29e-07 $l=5e-07 $layer=POLY_cond $X=1.005 $Y=1.385
+ $X2=1.505 $Y2=1.385
r107 39 40 1.46505 $w=3.29e-07 $l=1e-08 $layer=POLY_cond $X=0.995 $Y=1.385
+ $X2=1.005 $Y2=1.385
r108 37 38 145.28 $w=1.7e-07 $l=1.7e-07 $layer=licon1_POLY $count=1 $X=2.33
+ $Y=1.385 $X2=2.33 $Y2=1.385
r109 35 47 10.9545 $w=3.3e-07 $l=7.5e-08 $layer=POLY_cond $X=2.07 $Y=1.385
+ $X2=1.995 $Y2=1.385
r110 35 37 45.4639 $w=3.3e-07 $l=2.6e-07 $layer=POLY_cond $X=2.07 $Y=1.385
+ $X2=2.33 $Y2=1.385
r111 32 38 5.44209 $w=3.58e-07 $l=1.7e-07 $layer=LI1_cond $X=2.16 $Y=1.36
+ $X2=2.33 $Y2=1.36
r112 32 46 5.44209 $w=3.58e-07 $l=1.7e-07 $layer=LI1_cond $X=2.16 $Y=1.36
+ $X2=1.99 $Y2=1.36
r113 31 46 9.92381 $w=3.58e-07 $l=3.1e-07 $layer=LI1_cond $X=1.68 $Y=1.36
+ $X2=1.99 $Y2=1.36
r114 29 37 13.1146 $w=3.3e-07 $l=7.5e-08 $layer=POLY_cond $X=2.405 $Y=1.385
+ $X2=2.33 $Y2=1.385
r115 29 30 3.90195 $w=3.3e-07 $l=1.02e-07 $layer=POLY_cond $X=2.405 $Y=1.385
+ $X2=2.507 $Y2=1.385
r116 26 30 34.7346 $w=1.65e-07 $l=1.78452e-07 $layer=POLY_cond $X=2.535 $Y=1.22
+ $X2=2.507 $Y2=1.385
r117 26 28 154.24 $w=1.5e-07 $l=4.8e-07 $layer=POLY_cond $X=2.535 $Y=1.22
+ $X2=2.535 $Y2=0.74
r118 22 30 34.7346 $w=1.65e-07 $l=1.70895e-07 $layer=POLY_cond $X=2.495 $Y=1.55
+ $X2=2.507 $Y2=1.385
r119 22 24 330.403 $w=1.8e-07 $l=8.5e-07 $layer=POLY_cond $X=2.495 $Y=1.55
+ $X2=2.495 $Y2=2.4
r120 19 47 21.1507 $w=1.5e-07 $l=1.65e-07 $layer=POLY_cond $X=1.995 $Y=1.22
+ $X2=1.995 $Y2=1.385
r121 19 21 154.24 $w=1.5e-07 $l=4.8e-07 $layer=POLY_cond $X=1.995 $Y=1.22
+ $X2=1.995 $Y2=0.74
r122 15 43 16.8611 $w=1.8e-07 $l=1.65e-07 $layer=POLY_cond $X=1.955 $Y=1.55
+ $X2=1.955 $Y2=1.385
r123 15 17 330.403 $w=1.8e-07 $l=8.5e-07 $layer=POLY_cond $X=1.955 $Y=1.55
+ $X2=1.955 $Y2=2.4
r124 12 42 21.1507 $w=1.5e-07 $l=1.65e-07 $layer=POLY_cond $X=1.52 $Y=1.22
+ $X2=1.52 $Y2=1.385
r125 12 14 154.24 $w=1.5e-07 $l=4.8e-07 $layer=POLY_cond $X=1.52 $Y=1.22
+ $X2=1.52 $Y2=0.74
r126 8 41 16.8611 $w=1.8e-07 $l=1.65e-07 $layer=POLY_cond $X=1.505 $Y=1.55
+ $X2=1.505 $Y2=1.385
r127 8 10 330.403 $w=1.8e-07 $l=8.5e-07 $layer=POLY_cond $X=1.505 $Y=1.55
+ $X2=1.505 $Y2=2.4
r128 5 39 21.1507 $w=1.5e-07 $l=1.65e-07 $layer=POLY_cond $X=0.995 $Y=1.22
+ $X2=0.995 $Y2=1.385
r129 5 7 154.24 $w=1.5e-07 $l=4.8e-07 $layer=POLY_cond $X=0.995 $Y=1.22
+ $X2=0.995 $Y2=0.74
r130 1 40 16.8611 $w=1.8e-07 $l=1.65e-07 $layer=POLY_cond $X=1.005 $Y=1.55
+ $X2=1.005 $Y2=1.385
r131 1 3 330.403 $w=1.8e-07 $l=8.5e-07 $layer=POLY_cond $X=1.005 $Y=1.55
+ $X2=1.005 $Y2=2.4
.ends

.subckt PM_SKY130_FD_SC_MS__NOR4BB_4%A_864_48# 1 2 9 13 17 21 25 29 33 35 37 40
+ 41 42 43 48 49 50 51 53 54 55 59 60 61 62 63 67 71 76 78 87
c183 60 0 1.90324e-19 $X=8.71 $Y=1.385
c184 48 0 7.33604e-20 $X=5.27 $Y=1.585
c185 35 0 1.65916e-19 $X=8.11 $Y=1.22
c186 13 0 6.44537e-20 $X=4.41 $Y=2.305
r187 84 85 6.12014 $w=3.3e-07 $l=3.5e-08 $layer=POLY_cond $X=4.86 $Y=1.42
+ $X2=4.895 $Y2=1.42
r188 80 82 2.62292 $w=3.3e-07 $l=1.5e-08 $layer=POLY_cond $X=4.395 $Y=1.42
+ $X2=4.41 $Y2=1.42
r189 78 85 13.1146 $w=3.3e-07 $l=7.5e-08 $layer=POLY_cond $X=4.97 $Y=1.42
+ $X2=4.895 $Y2=1.42
r190 76 77 16.3921 $w=2.27e-07 $l=3.05e-07 $layer=LI1_cond $X=8.71 $Y=1.81
+ $X2=8.71 $Y2=2.115
r191 75 78 38.4695 $w=3.3e-07 $l=2.2e-07 $layer=POLY_cond $X=5.19 $Y=1.42
+ $X2=4.97 $Y2=1.42
r192 74 75 96.8533 $w=1.7e-07 $l=2.55e-07 $layer=licon1_POLY $count=1 $X=5.19
+ $Y=1.42 $X2=5.19 $Y2=1.42
r193 69 71 2.72396 $w=2.73e-07 $l=6.5e-08 $layer=LI1_cond $X=9.437 $Y=2.2
+ $X2=9.437 $Y2=2.265
r194 65 67 12.5882 $w=3.23e-07 $l=3.55e-07 $layer=LI1_cond $X=9.422 $Y=1.19
+ $X2=9.422 $Y2=0.835
r195 64 77 2.43258 $w=1.7e-07 $l=1.65e-07 $layer=LI1_cond $X=8.875 $Y=2.115
+ $X2=8.71 $Y2=2.115
r196 63 69 7.32204 $w=1.7e-07 $l=1.74396e-07 $layer=LI1_cond $X=9.3 $Y=2.115
+ $X2=9.437 $Y2=2.2
r197 63 64 27.7273 $w=1.68e-07 $l=4.25e-07 $layer=LI1_cond $X=9.3 $Y=2.115
+ $X2=8.875 $Y2=2.115
r198 61 65 7.72402 $w=1.7e-07 $l=2.00035e-07 $layer=LI1_cond $X=9.26 $Y=1.275
+ $X2=9.422 $Y2=1.19
r199 61 62 25.1176 $w=1.68e-07 $l=3.85e-07 $layer=LI1_cond $X=9.26 $Y=1.275
+ $X2=8.875 $Y2=1.275
r200 60 87 28.8521 $w=3.3e-07 $l=1.65e-07 $layer=POLY_cond $X=8.71 $Y=1.385
+ $X2=8.545 $Y2=1.385
r201 59 60 145.28 $w=1.7e-07 $l=1.7e-07 $layer=licon1_POLY $count=1 $X=8.71
+ $Y=1.385 $X2=8.71 $Y2=1.385
r202 57 76 4.34093 $w=3.3e-07 $l=8.5e-08 $layer=LI1_cond $X=8.71 $Y=1.725
+ $X2=8.71 $Y2=1.81
r203 57 59 11.8737 $w=3.28e-07 $l=3.4e-07 $layer=LI1_cond $X=8.71 $Y=1.725
+ $X2=8.71 $Y2=1.385
r204 56 62 7.76618 $w=1.7e-07 $l=2.03101e-07 $layer=LI1_cond $X=8.71 $Y=1.36
+ $X2=8.875 $Y2=1.275
r205 56 59 0.873063 $w=3.28e-07 $l=2.5e-08 $layer=LI1_cond $X=8.71 $Y=1.36
+ $X2=8.71 $Y2=1.385
r206 54 76 2.43258 $w=1.7e-07 $l=1.65e-07 $layer=LI1_cond $X=8.545 $Y=1.81
+ $X2=8.71 $Y2=1.81
r207 54 55 63.6096 $w=1.68e-07 $l=9.75e-07 $layer=LI1_cond $X=8.545 $Y=1.81
+ $X2=7.57 $Y2=1.81
r208 52 55 6.81649 $w=1.7e-07 $l=1.20208e-07 $layer=LI1_cond $X=7.485 $Y=1.895
+ $X2=7.57 $Y2=1.81
r209 52 53 21.5294 $w=1.68e-07 $l=3.3e-07 $layer=LI1_cond $X=7.485 $Y=1.895
+ $X2=7.485 $Y2=2.225
r210 50 53 6.81649 $w=1.7e-07 $l=1.20208e-07 $layer=LI1_cond $X=7.4 $Y=2.31
+ $X2=7.485 $Y2=2.225
r211 50 51 133.417 $w=1.68e-07 $l=2.045e-06 $layer=LI1_cond $X=7.4 $Y=2.31
+ $X2=5.355 $Y2=2.31
r212 49 51 6.81649 $w=1.7e-07 $l=1.20208e-07 $layer=LI1_cond $X=5.27 $Y=2.225
+ $X2=5.355 $Y2=2.31
r213 48 74 5.12568 $w=1.7e-07 $l=1.65e-07 $layer=LI1_cond $X=5.27 $Y=1.585
+ $X2=5.27 $Y2=1.42
r214 48 49 41.754 $w=1.68e-07 $l=6.4e-07 $layer=LI1_cond $X=5.27 $Y=1.585
+ $X2=5.27 $Y2=2.225
r215 46 84 61.2015 $w=3.3e-07 $l=3.5e-07 $layer=POLY_cond $X=4.51 $Y=1.42
+ $X2=4.86 $Y2=1.42
r216 46 82 17.4861 $w=3.3e-07 $l=1e-07 $layer=POLY_cond $X=4.51 $Y=1.42 $X2=4.41
+ $Y2=1.42
r217 45 46 96.8533 $w=1.7e-07 $l=2.55e-07 $layer=licon1_POLY $count=1 $X=4.51
+ $Y=1.42 $X2=4.51 $Y2=1.42
r218 43 74 2.6405 $w=3.3e-07 $l=8.5e-08 $layer=LI1_cond $X=5.185 $Y=1.42
+ $X2=5.27 $Y2=1.42
r219 43 45 23.5727 $w=3.28e-07 $l=6.75e-07 $layer=LI1_cond $X=5.185 $Y=1.42
+ $X2=4.51 $Y2=1.42
r220 40 75 22.732 $w=3.3e-07 $l=1.3e-07 $layer=POLY_cond $X=5.32 $Y=1.42
+ $X2=5.19 $Y2=1.42
r221 40 41 3.90195 $w=3.3e-07 $l=1.25e-07 $layer=POLY_cond $X=5.32 $Y=1.42
+ $X2=5.445 $Y2=1.42
r222 39 42 3.33671 $w=3.15e-07 $l=9e-08 $layer=POLY_cond $X=8.185 $Y=1.377
+ $X2=8.095 $Y2=1.377
r223 39 87 65.9477 $w=3.15e-07 $l=3.6e-07 $layer=POLY_cond $X=8.185 $Y=1.377
+ $X2=8.545 $Y2=1.377
r224 35 42 33.6231 $w=1.65e-07 $l=1.64329e-07 $layer=POLY_cond $X=8.11 $Y=1.22
+ $X2=8.095 $Y2=1.377
r225 35 37 154.24 $w=1.5e-07 $l=4.8e-07 $layer=POLY_cond $X=8.11 $Y=1.22
+ $X2=8.11 $Y2=0.74
r226 31 42 33.6231 $w=1.65e-07 $l=1.58e-07 $layer=POLY_cond $X=8.095 $Y=1.535
+ $X2=8.095 $Y2=1.377
r227 31 33 299.306 $w=1.8e-07 $l=7.7e-07 $layer=POLY_cond $X=8.095 $Y=1.535
+ $X2=8.095 $Y2=2.305
r228 27 41 34.7346 $w=1.65e-07 $l=1.81659e-07 $layer=POLY_cond $X=5.48 $Y=1.585
+ $X2=5.445 $Y2=1.42
r229 27 29 279.871 $w=1.8e-07 $l=7.2e-07 $layer=POLY_cond $X=5.48 $Y=1.585
+ $X2=5.48 $Y2=2.305
r230 23 41 34.7346 $w=1.65e-07 $l=1.88348e-07 $layer=POLY_cond $X=5.395 $Y=1.255
+ $X2=5.445 $Y2=1.42
r231 23 25 264.074 $w=1.5e-07 $l=5.15e-07 $layer=POLY_cond $X=5.395 $Y=1.255
+ $X2=5.395 $Y2=0.74
r232 19 85 21.2229 $w=1.5e-07 $l=1.65e-07 $layer=POLY_cond $X=4.895 $Y=1.255
+ $X2=4.895 $Y2=1.42
r233 19 21 264.074 $w=1.5e-07 $l=5.15e-07 $layer=POLY_cond $X=4.895 $Y=1.255
+ $X2=4.895 $Y2=0.74
r234 15 84 16.9318 $w=1.8e-07 $l=1.65e-07 $layer=POLY_cond $X=4.86 $Y=1.585
+ $X2=4.86 $Y2=1.42
r235 15 17 279.871 $w=1.8e-07 $l=7.2e-07 $layer=POLY_cond $X=4.86 $Y=1.585
+ $X2=4.86 $Y2=2.305
r236 11 82 16.9318 $w=1.8e-07 $l=1.65e-07 $layer=POLY_cond $X=4.41 $Y=1.585
+ $X2=4.41 $Y2=1.42
r237 11 13 279.871 $w=1.8e-07 $l=7.2e-07 $layer=POLY_cond $X=4.41 $Y=1.585
+ $X2=4.41 $Y2=2.305
r238 7 80 21.2229 $w=1.5e-07 $l=1.65e-07 $layer=POLY_cond $X=4.395 $Y=1.255
+ $X2=4.395 $Y2=1.42
r239 7 9 264.074 $w=1.5e-07 $l=5.15e-07 $layer=POLY_cond $X=4.395 $Y=1.255
+ $X2=4.395 $Y2=0.74
r240 2 71 300 $w=1.7e-07 $l=2.01494e-07 $layer=licon1_PDIFF $count=2 $X=9.275
+ $Y=2.12 $X2=9.41 $Y2=2.265
r241 1 67 182 $w=1.7e-07 $l=5.30401e-07 $layer=licon1_NDIFF $count=1 $X=9.28
+ $Y=0.37 $X2=9.42 $Y2=0.835
.ends

.subckt PM_SKY130_FD_SC_MS__NOR4BB_4%A_1162_48# 1 2 9 13 15 19 23 27 29 32 36 38
+ 40 41 42 43 52 53 54 56 57 58 60 61 62 65 67 68 71 74 75 77 82
c186 43 0 1.20663e-19 $X=8.205 $Y=1.39
c187 41 0 7.33604e-20 $X=5.915 $Y=1.33
c188 9 0 1.59971e-19 $X=5.885 $Y=0.74
r189 76 78 2.62292 $w=3.3e-07 $l=1.5e-08 $layer=POLY_cond $X=6.825 $Y=1.39
+ $X2=6.84 $Y2=1.39
r190 76 77 30.474 $w=3.3e-07 $l=7.5e-08 $layer=POLY_cond $X=6.825 $Y=1.39
+ $X2=6.75 $Y2=1.39
r191 73 75 4.23118 $w=2.15e-07 $l=1.05119e-07 $layer=LI1_cond $X=10.84 $Y=1.28
+ $X2=10.795 $Y2=1.195
r192 73 74 43.7112 $w=1.68e-07 $l=6.7e-07 $layer=LI1_cond $X=10.84 $Y=1.28
+ $X2=10.84 $Y2=1.95
r193 69 75 4.23118 $w=2.15e-07 $l=8.5e-08 $layer=LI1_cond $X=10.795 $Y=1.11
+ $X2=10.795 $Y2=1.195
r194 69 71 26.3732 $w=2.58e-07 $l=5.95e-07 $layer=LI1_cond $X=10.795 $Y=1.11
+ $X2=10.795 $Y2=0.515
r195 67 74 6.81649 $w=1.7e-07 $l=1.20208e-07 $layer=LI1_cond $X=10.755 $Y=2.035
+ $X2=10.84 $Y2=1.95
r196 67 68 23.4866 $w=1.68e-07 $l=3.6e-07 $layer=LI1_cond $X=10.755 $Y=2.035
+ $X2=10.395 $Y2=2.035
r197 63 68 7.14316 $w=1.7e-07 $l=1.62019e-07 $layer=LI1_cond $X=10.27 $Y=2.12
+ $X2=10.395 $Y2=2.035
r198 63 65 6.68417 $w=2.48e-07 $l=1.45e-07 $layer=LI1_cond $X=10.27 $Y=2.12
+ $X2=10.27 $Y2=2.265
r199 61 75 2.20034 $w=1.7e-07 $l=1.3e-07 $layer=LI1_cond $X=10.665 $Y=1.195
+ $X2=10.795 $Y2=1.195
r200 61 62 48.2781 $w=1.68e-07 $l=7.4e-07 $layer=LI1_cond $X=10.665 $Y=1.195
+ $X2=9.925 $Y2=1.195
r201 60 62 6.81649 $w=1.7e-07 $l=1.20208e-07 $layer=LI1_cond $X=9.84 $Y=1.11
+ $X2=9.925 $Y2=1.195
r202 59 60 44.6898 $w=1.68e-07 $l=6.85e-07 $layer=LI1_cond $X=9.84 $Y=0.425
+ $X2=9.84 $Y2=1.11
r203 57 59 6.81649 $w=1.7e-07 $l=1.20208e-07 $layer=LI1_cond $X=9.755 $Y=0.34
+ $X2=9.84 $Y2=0.425
r204 57 58 43.385 $w=1.68e-07 $l=6.65e-07 $layer=LI1_cond $X=9.755 $Y=0.34
+ $X2=9.09 $Y2=0.34
r205 55 58 6.81649 $w=1.7e-07 $l=1.20208e-07 $layer=LI1_cond $X=9.005 $Y=0.425
+ $X2=9.09 $Y2=0.34
r206 55 56 27.7273 $w=1.68e-07 $l=4.25e-07 $layer=LI1_cond $X=9.005 $Y=0.425
+ $X2=9.005 $Y2=0.85
r207 53 56 6.81649 $w=1.7e-07 $l=1.20208e-07 $layer=LI1_cond $X=8.92 $Y=0.935
+ $X2=9.005 $Y2=0.85
r208 53 54 35.5561 $w=1.68e-07 $l=5.45e-07 $layer=LI1_cond $X=8.92 $Y=0.935
+ $X2=8.375 $Y2=0.935
r209 51 54 6.81649 $w=1.7e-07 $l=1.20208e-07 $layer=LI1_cond $X=8.29 $Y=1.02
+ $X2=8.375 $Y2=0.935
r210 51 52 13.3743 $w=1.68e-07 $l=2.05e-07 $layer=LI1_cond $X=8.29 $Y=1.02
+ $X2=8.29 $Y2=1.225
r211 50 82 4.37153 $w=3.3e-07 $l=2.5e-08 $layer=POLY_cond $X=7.63 $Y=1.39
+ $X2=7.655 $Y2=1.39
r212 50 80 59.4528 $w=3.3e-07 $l=3.4e-07 $layer=POLY_cond $X=7.63 $Y=1.39
+ $X2=7.29 $Y2=1.39
r213 49 50 96.8533 $w=1.7e-07 $l=2.55e-07 $layer=licon1_POLY $count=1 $X=7.63
+ $Y=1.39 $X2=7.63 $Y2=1.39
r214 46 80 59.4528 $w=3.3e-07 $l=3.4e-07 $layer=POLY_cond $X=6.95 $Y=1.39
+ $X2=7.29 $Y2=1.39
r215 46 78 19.2347 $w=3.3e-07 $l=1.1e-07 $layer=POLY_cond $X=6.95 $Y=1.39
+ $X2=6.84 $Y2=1.39
r216 45 49 23.7473 $w=3.28e-07 $l=6.8e-07 $layer=LI1_cond $X=6.95 $Y=1.39
+ $X2=7.63 $Y2=1.39
r217 45 46 96.8533 $w=1.7e-07 $l=2.55e-07 $layer=licon1_POLY $count=1 $X=6.95
+ $Y=1.39 $X2=6.95 $Y2=1.39
r218 43 52 7.76618 $w=3.3e-07 $l=2.03101e-07 $layer=LI1_cond $X=8.205 $Y=1.39
+ $X2=8.29 $Y2=1.225
r219 43 49 20.0804 $w=3.28e-07 $l=5.75e-07 $layer=LI1_cond $X=8.205 $Y=1.39
+ $X2=7.63 $Y2=1.39
r220 38 82 21.2229 $w=1.5e-07 $l=1.65e-07 $layer=POLY_cond $X=7.655 $Y=1.225
+ $X2=7.655 $Y2=1.39
r221 38 40 155.847 $w=1.5e-07 $l=4.85e-07 $layer=POLY_cond $X=7.655 $Y=1.225
+ $X2=7.655 $Y2=0.74
r222 34 80 16.9318 $w=1.8e-07 $l=1.65e-07 $layer=POLY_cond $X=7.29 $Y=1.555
+ $X2=7.29 $Y2=1.39
r223 34 36 291.532 $w=1.8e-07 $l=7.5e-07 $layer=POLY_cond $X=7.29 $Y=1.555
+ $X2=7.29 $Y2=2.305
r224 30 78 16.9318 $w=1.8e-07 $l=1.65e-07 $layer=POLY_cond $X=6.84 $Y=1.555
+ $X2=6.84 $Y2=1.39
r225 30 32 291.532 $w=1.8e-07 $l=7.5e-07 $layer=POLY_cond $X=6.84 $Y=1.555
+ $X2=6.84 $Y2=2.305
r226 27 76 21.2229 $w=1.5e-07 $l=1.65e-07 $layer=POLY_cond $X=6.825 $Y=1.225
+ $X2=6.825 $Y2=1.39
r227 27 29 155.847 $w=1.5e-07 $l=4.85e-07 $layer=POLY_cond $X=6.825 $Y=1.225
+ $X2=6.825 $Y2=0.74
r228 26 42 13.2179 $w=1.5e-07 $l=9e-08 $layer=POLY_cond $X=6.47 $Y=1.33 $X2=6.38
+ $Y2=1.33
r229 26 77 143.574 $w=1.5e-07 $l=2.8e-07 $layer=POLY_cond $X=6.47 $Y=1.33
+ $X2=6.75 $Y2=1.33
r230 21 42 10.9219 $w=1.5e-07 $l=8.21584e-08 $layer=POLY_cond $X=6.395 $Y=1.255
+ $X2=6.38 $Y2=1.33
r231 21 23 264.074 $w=1.5e-07 $l=5.15e-07 $layer=POLY_cond $X=6.395 $Y=1.255
+ $X2=6.395 $Y2=0.74
r232 17 42 10.9219 $w=1.8e-07 $l=7.5e-08 $layer=POLY_cond $X=6.38 $Y=1.405
+ $X2=6.38 $Y2=1.33
r233 17 19 349.839 $w=1.8e-07 $l=9e-07 $layer=POLY_cond $X=6.38 $Y=1.405
+ $X2=6.38 $Y2=2.305
r234 16 41 6.66866 $w=1.5e-07 $l=1.05e-07 $layer=POLY_cond $X=6.02 $Y=1.33
+ $X2=5.915 $Y2=1.33
r235 15 42 13.2179 $w=1.5e-07 $l=9e-08 $layer=POLY_cond $X=6.29 $Y=1.33 $X2=6.38
+ $Y2=1.33
r236 15 16 138.447 $w=1.5e-07 $l=2.7e-07 $layer=POLY_cond $X=6.29 $Y=1.33
+ $X2=6.02 $Y2=1.33
r237 11 41 18.8402 $w=1.65e-07 $l=8.21584e-08 $layer=POLY_cond $X=5.93 $Y=1.405
+ $X2=5.915 $Y2=1.33
r238 11 13 349.839 $w=1.8e-07 $l=9e-07 $layer=POLY_cond $X=5.93 $Y=1.405
+ $X2=5.93 $Y2=2.305
r239 7 41 18.8402 $w=1.65e-07 $l=8.87412e-08 $layer=POLY_cond $X=5.885 $Y=1.255
+ $X2=5.915 $Y2=1.33
r240 7 9 264.074 $w=1.5e-07 $l=5.15e-07 $layer=POLY_cond $X=5.885 $Y=1.255
+ $X2=5.885 $Y2=0.74
r241 2 65 300 $w=1.7e-07 $l=2.01494e-07 $layer=licon1_PDIFF $count=2 $X=10.175
+ $Y=2.12 $X2=10.31 $Y2=2.265
r242 1 71 91 $w=1.7e-07 $l=2.03286e-07 $layer=licon1_NDIFF $count=2 $X=10.62
+ $Y=0.37 $X2=10.76 $Y2=0.515
.ends

.subckt PM_SKY130_FD_SC_MS__NOR4BB_4%C_N 3 7 11 13 14 20
c48 20 0 5.00264e-20 $X=9.26 $Y=1.695
c49 14 0 6.96612e-20 $X=9.84 $Y=1.665
r50 20 21 145.28 $w=1.7e-07 $l=1.7e-07 $layer=licon1_POLY $count=1 $X=9.26
+ $Y=1.695 $X2=9.26 $Y2=1.695
r51 18 20 10.8648 $w=2.44e-07 $l=5.5e-08 $layer=POLY_cond $X=9.205 $Y=1.695
+ $X2=9.26 $Y2=1.695
r52 17 18 3.95082 $w=2.44e-07 $l=2e-08 $layer=POLY_cond $X=9.185 $Y=1.695
+ $X2=9.205 $Y2=1.695
r53 13 14 16.7628 $w=3.28e-07 $l=4.8e-07 $layer=LI1_cond $X=9.36 $Y=1.695
+ $X2=9.84 $Y2=1.695
r54 13 21 3.49225 $w=3.28e-07 $l=1e-07 $layer=LI1_cond $X=9.36 $Y=1.695 $X2=9.26
+ $Y2=1.695
r55 9 20 74.0779 $w=2.44e-07 $l=4.5e-07 $layer=POLY_cond $X=9.635 $Y=1.86
+ $X2=9.26 $Y2=1.695
r56 9 11 264.323 $w=1.8e-07 $l=6.8e-07 $layer=POLY_cond $X=9.635 $Y=1.86
+ $X2=9.635 $Y2=2.54
r57 5 18 14.1583 $w=1.5e-07 $l=1.65e-07 $layer=POLY_cond $X=9.205 $Y=1.53
+ $X2=9.205 $Y2=1.695
r58 5 7 405.085 $w=1.5e-07 $l=7.9e-07 $layer=POLY_cond $X=9.205 $Y=1.53
+ $X2=9.205 $Y2=0.74
r59 1 17 9.95785 $w=1.8e-07 $l=1.65e-07 $layer=POLY_cond $X=9.185 $Y=1.86
+ $X2=9.185 $Y2=1.695
r60 1 3 264.323 $w=1.8e-07 $l=6.8e-07 $layer=POLY_cond $X=9.185 $Y=1.86
+ $X2=9.185 $Y2=2.54
.ends

.subckt PM_SKY130_FD_SC_MS__NOR4BB_4%D_N 3 7 11 13 19
c39 13 0 5.00264e-20 $X=10.32 $Y=1.665
r40 19 20 1.46951 $w=3.28e-07 $l=1e-08 $layer=POLY_cond $X=10.535 $Y=1.615
+ $X2=10.545 $Y2=1.615
r41 17 19 36.003 $w=3.28e-07 $l=2.45e-07 $layer=POLY_cond $X=10.29 $Y=1.615
+ $X2=10.535 $Y2=1.615
r42 15 17 30.125 $w=3.28e-07 $l=2.05e-07 $layer=POLY_cond $X=10.085 $Y=1.615
+ $X2=10.29 $Y2=1.615
r43 13 17 145.28 $w=1.7e-07 $l=1.7e-07 $layer=licon1_POLY $count=1 $X=10.29
+ $Y=1.615 $X2=10.29 $Y2=1.615
r44 9 20 21.0783 $w=1.5e-07 $l=1.65e-07 $layer=POLY_cond $X=10.545 $Y=1.45
+ $X2=10.545 $Y2=1.615
r45 9 11 364.064 $w=1.5e-07 $l=7.1e-07 $layer=POLY_cond $X=10.545 $Y=1.45
+ $X2=10.545 $Y2=0.74
r46 5 19 16.7902 $w=1.8e-07 $l=1.65e-07 $layer=POLY_cond $X=10.535 $Y=1.78
+ $X2=10.535 $Y2=1.615
r47 5 7 295.419 $w=1.8e-07 $l=7.6e-07 $layer=POLY_cond $X=10.535 $Y=1.78
+ $X2=10.535 $Y2=2.54
r48 1 15 16.7902 $w=1.8e-07 $l=1.65e-07 $layer=POLY_cond $X=10.085 $Y=1.78
+ $X2=10.085 $Y2=1.615
r49 1 3 295.419 $w=1.8e-07 $l=7.6e-07 $layer=POLY_cond $X=10.085 $Y=1.78
+ $X2=10.085 $Y2=2.54
.ends

.subckt PM_SKY130_FD_SC_MS__NOR4BB_4%A_27_368# 1 2 3 4 5 18 20 24 26 28 31 32 33
+ 38 41 44
c87 18 0 1.49283e-19 $X=0.28 $Y=2.815
r88 47 48 8.55602 $w=3.28e-07 $l=2.45e-07 $layer=LI1_cond $X=3.225 $Y=1.89
+ $X2=3.225 $Y2=2.135
r89 44 47 1.74613 $w=3.28e-07 $l=5e-08 $layer=LI1_cond $X=3.225 $Y=1.84
+ $X2=3.225 $Y2=1.89
r90 41 43 5.23838 $w=3.28e-07 $l=1.5e-07 $layer=LI1_cond $X=0.28 $Y=1.985
+ $X2=0.28 $Y2=2.135
r91 36 38 27.2947 $w=2.83e-07 $l=6.75e-07 $layer=LI1_cond $X=8.347 $Y=2.905
+ $X2=8.347 $Y2=2.23
r92 33 35 59.369 $w=1.68e-07 $l=9.1e-07 $layer=LI1_cond $X=4.26 $Y=2.99 $X2=5.17
+ $Y2=2.99
r93 32 36 7.39867 $w=1.7e-07 $l=1.79538e-07 $layer=LI1_cond $X=8.205 $Y=2.99
+ $X2=8.347 $Y2=2.905
r94 32 35 198.005 $w=1.68e-07 $l=3.035e-06 $layer=LI1_cond $X=8.205 $Y=2.99
+ $X2=5.17 $Y2=2.99
r95 29 33 6.81649 $w=1.7e-07 $l=1.20208e-07 $layer=LI1_cond $X=4.175 $Y=2.905
+ $X2=4.26 $Y2=2.99
r96 29 31 12.0695 $w=1.68e-07 $l=1.85e-07 $layer=LI1_cond $X=4.175 $Y=2.905
+ $X2=4.175 $Y2=2.72
r97 28 50 3.40825 $w=1.7e-07 $l=8.5e-08 $layer=LI1_cond $X=4.175 $Y=1.925
+ $X2=4.175 $Y2=1.84
r98 28 31 51.8663 $w=1.68e-07 $l=7.95e-07 $layer=LI1_cond $X=4.175 $Y=1.925
+ $X2=4.175 $Y2=2.72
r99 27 44 4.62375 $w=1.7e-07 $l=1.65e-07 $layer=LI1_cond $X=3.39 $Y=1.84
+ $X2=3.225 $Y2=1.84
r100 26 50 3.40825 $w=1.7e-07 $l=8.5e-08 $layer=LI1_cond $X=4.09 $Y=1.84
+ $X2=4.175 $Y2=1.84
r101 26 27 45.6684 $w=1.68e-07 $l=7e-07 $layer=LI1_cond $X=4.09 $Y=1.84 $X2=3.39
+ $Y2=1.84
r102 22 48 2.96841 $w=3.28e-07 $l=8.5e-08 $layer=LI1_cond $X=3.225 $Y=2.22
+ $X2=3.225 $Y2=2.135
r103 22 24 12.2229 $w=3.28e-07 $l=3.5e-07 $layer=LI1_cond $X=3.225 $Y=2.22
+ $X2=3.225 $Y2=2.57
r104 21 43 4.62375 $w=1.7e-07 $l=1.65e-07 $layer=LI1_cond $X=0.445 $Y=2.135
+ $X2=0.28 $Y2=2.135
r105 20 48 4.62375 $w=1.7e-07 $l=1.65e-07 $layer=LI1_cond $X=3.06 $Y=2.135
+ $X2=3.225 $Y2=2.135
r106 20 21 170.604 $w=1.68e-07 $l=2.615e-06 $layer=LI1_cond $X=3.06 $Y=2.135
+ $X2=0.445 $Y2=2.135
r107 16 43 2.96841 $w=3.28e-07 $l=8.5e-08 $layer=LI1_cond $X=0.28 $Y=2.22
+ $X2=0.28 $Y2=2.135
r108 16 18 20.7789 $w=3.28e-07 $l=5.95e-07 $layer=LI1_cond $X=0.28 $Y=2.22
+ $X2=0.28 $Y2=2.815
r109 5 38 300 $w=1.7e-07 $l=5.50568e-07 $layer=licon1_PDIFF $count=2 $X=8.185
+ $Y=1.745 $X2=8.325 $Y2=2.23
r110 4 35 600 $w=1.7e-07 $l=1.35053e-06 $layer=licon1_PDIFF $count=1 $X=4.95
+ $Y=1.745 $X2=5.17 $Y2=2.99
r111 3 50 400 $w=1.7e-07 $l=2.32916e-07 $layer=licon1_PDIFF $count=1 $X=4.04
+ $Y=1.745 $X2=4.175 $Y2=1.92
r112 3 31 400 $w=1.7e-07 $l=1.04031e-06 $layer=licon1_PDIFF $count=1 $X=4.04
+ $Y=1.745 $X2=4.175 $Y2=2.72
r113 2 47 400 $w=1.7e-07 $l=2.01494e-07 $layer=licon1_PDIFF $count=1 $X=3.09
+ $Y=1.745 $X2=3.225 $Y2=1.89
r114 2 24 400 $w=1.7e-07 $l=8.89944e-07 $layer=licon1_PDIFF $count=1 $X=3.09
+ $Y=1.745 $X2=3.225 $Y2=2.57
r115 1 41 400 $w=1.7e-07 $l=2.05061e-07 $layer=licon1_PDIFF $count=1 $X=0.135
+ $Y=1.84 $X2=0.28 $Y2=1.985
r116 1 18 400 $w=1.7e-07 $l=1.04499e-06 $layer=licon1_PDIFF $count=1 $X=0.135
+ $Y=1.84 $X2=0.28 $Y2=2.815
.ends

.subckt PM_SKY130_FD_SC_MS__NOR4BB_4%A_119_368# 1 2 3 4 15 19 21 23 24 25 26 29
+ 32 34
c57 32 0 1.72297e-19 $X=0.78 $Y=2.475
c58 25 0 6.44537e-20 $X=3.56 $Y=2.99
c59 19 0 1.53462e-19 $X=1.73 $Y=2.815
r60 27 29 22.525 $w=3.28e-07 $l=6.45e-07 $layer=LI1_cond $X=3.725 $Y=2.905
+ $X2=3.725 $Y2=2.26
r61 25 27 7.76618 $w=1.7e-07 $l=2.03101e-07 $layer=LI1_cond $X=3.56 $Y=2.99
+ $X2=3.725 $Y2=2.905
r62 25 26 44.0374 $w=1.68e-07 $l=6.75e-07 $layer=LI1_cond $X=3.56 $Y=2.99
+ $X2=2.885 $Y2=2.99
r63 24 26 7.14316 $w=1.7e-07 $l=1.62019e-07 $layer=LI1_cond $X=2.76 $Y=2.905
+ $X2=2.885 $Y2=2.99
r64 23 36 2.89128 $w=2.5e-07 $l=8.5e-08 $layer=LI1_cond $X=2.76 $Y=2.56 $X2=2.76
+ $Y2=2.475
r65 23 24 15.9037 $w=2.48e-07 $l=3.45e-07 $layer=LI1_cond $X=2.76 $Y=2.56
+ $X2=2.76 $Y2=2.905
r66 22 34 7.02821 $w=1.7e-07 $l=1.25e-07 $layer=LI1_cond $X=1.895 $Y=2.475
+ $X2=1.77 $Y2=2.475
r67 21 36 4.25188 $w=1.7e-07 $l=1.25e-07 $layer=LI1_cond $X=2.635 $Y=2.475
+ $X2=2.76 $Y2=2.475
r68 21 22 48.2781 $w=1.68e-07 $l=7.4e-07 $layer=LI1_cond $X=2.635 $Y=2.475
+ $X2=1.895 $Y2=2.475
r69 17 34 0.00168595 $w=2.5e-07 $l=8.5e-08 $layer=LI1_cond $X=1.77 $Y=2.56
+ $X2=1.77 $Y2=2.475
r70 17 19 11.7549 $w=2.48e-07 $l=2.55e-07 $layer=LI1_cond $X=1.77 $Y=2.56
+ $X2=1.77 $Y2=2.815
r71 16 32 5.12568 $w=1.7e-07 $l=1.65e-07 $layer=LI1_cond $X=0.945 $Y=2.475
+ $X2=0.78 $Y2=2.475
r72 15 34 7.02821 $w=1.7e-07 $l=1.25e-07 $layer=LI1_cond $X=1.645 $Y=2.475
+ $X2=1.77 $Y2=2.475
r73 15 16 45.6684 $w=1.68e-07 $l=7e-07 $layer=LI1_cond $X=1.645 $Y=2.475
+ $X2=0.945 $Y2=2.475
r74 4 29 300 $w=1.7e-07 $l=6.00417e-07 $layer=licon1_PDIFF $count=2 $X=3.54
+ $Y=1.745 $X2=3.725 $Y2=2.26
r75 3 36 600 $w=1.7e-07 $l=7.79583e-07 $layer=licon1_PDIFF $count=1 $X=2.585
+ $Y=1.84 $X2=2.72 $Y2=2.555
r76 2 34 600 $w=1.7e-07 $l=6.9925e-07 $layer=licon1_PDIFF $count=1 $X=1.595
+ $Y=1.84 $X2=1.73 $Y2=2.475
r77 2 19 600 $w=1.7e-07 $l=1.04031e-06 $layer=licon1_PDIFF $count=1 $X=1.595
+ $Y=1.84 $X2=1.73 $Y2=2.815
r78 1 32 300 $w=1.7e-07 $l=7.21595e-07 $layer=licon1_PDIFF $count=2 $X=0.595
+ $Y=1.84 $X2=0.78 $Y2=2.475
.ends

.subckt PM_SKY130_FD_SC_MS__NOR4BB_4%VPWR 1 2 3 4 5 18 22 26 28 32 34 36 38 40
+ 45 50 58 64 67 70 73 77
c108 22 0 1.13165e-19 $X=2.25 $Y=2.815
r109 76 77 9.3 $w=1.7e-07 $l=1.7e-07 $layer=mcon $count=1 $X=10.8 $Y=3.33
+ $X2=10.8 $Y2=3.33
r110 73 74 4.65 $w=1.7e-07 $l=3.4e-07 $layer=mcon $count=2 $X=9.84 $Y=3.33
+ $X2=9.84 $Y2=3.33
r111 71 74 0.267585 $w=4.9e-07 $l=9.6e-07 $layer=MET1_cond $X=8.88 $Y=3.33
+ $X2=9.84 $Y2=3.33
r112 70 71 9.3 $w=1.7e-07 $l=1.7e-07 $layer=mcon $count=1 $X=8.88 $Y=3.33
+ $X2=8.88 $Y2=3.33
r113 67 68 9.3 $w=1.7e-07 $l=1.7e-07 $layer=mcon $count=1 $X=2.16 $Y=3.33
+ $X2=2.16 $Y2=3.33
r114 64 65 9.3 $w=1.7e-07 $l=1.7e-07 $layer=mcon $count=1 $X=1.2 $Y=3.33 $X2=1.2
+ $Y2=3.33
r115 62 77 0.133793 $w=4.9e-07 $l=4.8e-07 $layer=MET1_cond $X=10.32 $Y=3.33
+ $X2=10.8 $Y2=3.33
r116 62 74 0.133793 $w=4.9e-07 $l=4.8e-07 $layer=MET1_cond $X=10.32 $Y=3.33
+ $X2=9.84 $Y2=3.33
r117 61 62 9.3 $w=1.7e-07 $l=1.7e-07 $layer=mcon $count=1 $X=10.32 $Y=3.33
+ $X2=10.32 $Y2=3.33
r118 59 73 5.16603 $w=1.7e-07 $l=8.5e-08 $layer=LI1_cond $X=9.945 $Y=3.33
+ $X2=9.86 $Y2=3.33
r119 59 61 24.4652 $w=1.68e-07 $l=3.75e-07 $layer=LI1_cond $X=9.945 $Y=3.33
+ $X2=10.32 $Y2=3.33
r120 58 76 4.73651 $w=1.7e-07 $l=2.22e-07 $layer=LI1_cond $X=10.595 $Y=3.33
+ $X2=10.817 $Y2=3.33
r121 58 61 17.9412 $w=1.68e-07 $l=2.75e-07 $layer=LI1_cond $X=10.595 $Y=3.33
+ $X2=10.32 $Y2=3.33
r122 57 71 0.133793 $w=4.9e-07 $l=4.8e-07 $layer=MET1_cond $X=8.4 $Y=3.33
+ $X2=8.88 $Y2=3.33
r123 56 57 1.43077 $w=1.7e-07 $l=1.105e-06 $layer=mcon $count=6 $X=8.4 $Y=3.33
+ $X2=8.4 $Y2=3.33
r124 54 68 0.133793 $w=4.9e-07 $l=4.8e-07 $layer=MET1_cond $X=2.64 $Y=3.33
+ $X2=2.16 $Y2=3.33
r125 53 56 375.786 $w=1.68e-07 $l=5.76e-06 $layer=LI1_cond $X=2.64 $Y=3.33
+ $X2=8.4 $Y2=3.33
r126 53 54 1.43077 $w=1.7e-07 $l=1.105e-06 $layer=mcon $count=6 $X=2.64 $Y=3.33
+ $X2=2.64 $Y2=3.33
r127 51 67 9.31531 $w=1.7e-07 $l=1.85e-07 $layer=LI1_cond $X=2.435 $Y=3.33
+ $X2=2.25 $Y2=3.33
r128 51 53 13.3743 $w=1.68e-07 $l=2.05e-07 $layer=LI1_cond $X=2.435 $Y=3.33
+ $X2=2.64 $Y2=3.33
r129 50 70 8.61065 $w=1.7e-07 $l=1.65e-07 $layer=LI1_cond $X=8.79 $Y=3.33
+ $X2=8.955 $Y2=3.33
r130 50 56 25.4438 $w=1.68e-07 $l=3.9e-07 $layer=LI1_cond $X=8.79 $Y=3.33
+ $X2=8.4 $Y2=3.33
r131 49 68 0.133793 $w=4.9e-07 $l=4.8e-07 $layer=MET1_cond $X=1.68 $Y=3.33
+ $X2=2.16 $Y2=3.33
r132 49 65 0.133793 $w=4.9e-07 $l=4.8e-07 $layer=MET1_cond $X=1.68 $Y=3.33
+ $X2=1.2 $Y2=3.33
r133 48 49 9.3 $w=1.7e-07 $l=1.7e-07 $layer=mcon $count=1 $X=1.68 $Y=3.33
+ $X2=1.68 $Y2=3.33
r134 46 64 8.61065 $w=1.7e-07 $l=1.65e-07 $layer=LI1_cond $X=1.445 $Y=3.33
+ $X2=1.28 $Y2=3.33
r135 46 48 15.3316 $w=1.68e-07 $l=2.35e-07 $layer=LI1_cond $X=1.445 $Y=3.33
+ $X2=1.68 $Y2=3.33
r136 45 67 9.31531 $w=1.7e-07 $l=1.85e-07 $layer=LI1_cond $X=2.065 $Y=3.33
+ $X2=2.25 $Y2=3.33
r137 45 48 25.1176 $w=1.68e-07 $l=3.85e-07 $layer=LI1_cond $X=2.065 $Y=3.33
+ $X2=1.68 $Y2=3.33
r138 43 65 0.133793 $w=4.9e-07 $l=4.8e-07 $layer=MET1_cond $X=0.72 $Y=3.33
+ $X2=1.2 $Y2=3.33
r139 42 43 4.65 $w=1.7e-07 $l=3.4e-07 $layer=mcon $count=2 $X=0.72 $Y=3.33
+ $X2=0.72 $Y2=3.33
r140 40 64 8.61065 $w=1.7e-07 $l=1.65e-07 $layer=LI1_cond $X=1.115 $Y=3.33
+ $X2=1.28 $Y2=3.33
r141 40 42 25.7701 $w=1.68e-07 $l=3.95e-07 $layer=LI1_cond $X=1.115 $Y=3.33
+ $X2=0.72 $Y2=3.33
r142 38 57 0.802756 $w=4.9e-07 $l=2.88e-06 $layer=MET1_cond $X=5.52 $Y=3.33
+ $X2=8.4 $Y2=3.33
r143 38 54 0.802756 $w=4.9e-07 $l=2.88e-06 $layer=MET1_cond $X=5.52 $Y=3.33
+ $X2=2.64 $Y2=3.33
r144 34 76 3.02966 $w=3.3e-07 $l=1.09864e-07 $layer=LI1_cond $X=10.76 $Y=3.245
+ $X2=10.817 $Y2=3.33
r145 34 36 29.6841 $w=3.28e-07 $l=8.5e-07 $layer=LI1_cond $X=10.76 $Y=3.245
+ $X2=10.76 $Y2=2.395
r146 30 73 1.34256 $w=1.7e-07 $l=8.5e-08 $layer=LI1_cond $X=9.86 $Y=3.245
+ $X2=9.86 $Y2=3.33
r147 30 32 63.9358 $w=1.68e-07 $l=9.8e-07 $layer=LI1_cond $X=9.86 $Y=3.245
+ $X2=9.86 $Y2=2.265
r148 29 70 8.61065 $w=1.7e-07 $l=1.65e-07 $layer=LI1_cond $X=9.12 $Y=3.33
+ $X2=8.955 $Y2=3.33
r149 28 73 5.16603 $w=1.7e-07 $l=8.5e-08 $layer=LI1_cond $X=9.775 $Y=3.33
+ $X2=9.86 $Y2=3.33
r150 28 29 42.7326 $w=1.68e-07 $l=6.55e-07 $layer=LI1_cond $X=9.775 $Y=3.33
+ $X2=9.12 $Y2=3.33
r151 24 70 0.89609 $w=3.3e-07 $l=8.5e-08 $layer=LI1_cond $X=8.955 $Y=3.245
+ $X2=8.955 $Y2=3.33
r152 24 26 27.5888 $w=3.28e-07 $l=7.9e-07 $layer=LI1_cond $X=8.955 $Y=3.245
+ $X2=8.955 $Y2=2.455
r153 20 67 1.24149 $w=3.7e-07 $l=8.5e-08 $layer=LI1_cond $X=2.25 $Y=3.245