* File: sky130_fd_sc_ms__sdfsbp_2.pex.spice
* Created: Wed Sep  2 12:31:01 2020
* Program "Calibre xRC"
* Version "v2018.4_34.26"
* Nominal Temperature: 27C
* Circuit Temperature: 27C
* 
.subckt PM_SKY130_FD_SC_MS__SDFSBP_2%A_27_74# 1 2 9 12 16 19 22 26 27 29 31 32
+ 34 35 40
c77 34 0 1.76481e-19 $X=1.94 $Y=1.975
r78 35 44 40.6903 $w=3.3e-07 $l=1.65e-07 $layer=POLY_cond $X=1.94 $Y=1.975
+ $X2=1.94 $Y2=2.14
r79 34 37 2.7938 $w=3.28e-07 $l=8e-08 $layer=LI1_cond $X=1.94 $Y=1.975 $X2=1.94
+ $Y2=2.055
r80 34 35 145.28 $w=1.7e-07 $l=1.7e-07 $layer=licon1_POLY $count=1 $X=1.94
+ $Y=1.975 $X2=1.94 $Y2=1.975
r81 30 32 3.11956 $w=1.7e-07 $l=1.9e-07 $layer=LI1_cond $X=0.465 $Y=2.055
+ $X2=0.275 $Y2=2.055
r82 29 37 4.62375 $w=1.7e-07 $l=1.65e-07 $layer=LI1_cond $X=1.775 $Y=2.055
+ $X2=1.94 $Y2=2.055
r83 29 30 85.4652 $w=1.68e-07 $l=1.31e-06 $layer=LI1_cond $X=1.775 $Y=2.055
+ $X2=0.465 $Y2=2.055
r84 27 40 46.2115 $w=3.3e-07 $l=1.65e-07 $layer=POLY_cond $X=0.98 $Y=1.065
+ $X2=0.98 $Y2=0.9
r85 26 27 145.28 $w=1.7e-07 $l=1.7e-07 $layer=licon1_POLY $count=1 $X=0.98
+ $Y=1.065 $X2=0.98 $Y2=1.065
r86 24 31 0.565906 $w=3.3e-07 $l=1.8e-07 $layer=LI1_cond $X=0.445 $Y=1.065
+ $X2=0.265 $Y2=1.065
r87 24 26 18.6835 $w=3.28e-07 $l=5.35e-07 $layer=LI1_cond $X=0.445 $Y=1.065
+ $X2=0.98 $Y2=1.065
r88 20 32 3.40559 $w=2.75e-07 $l=8.5e-08 $layer=LI1_cond $X=0.275 $Y=2.14
+ $X2=0.275 $Y2=2.055
r89 20 22 9.85642 $w=3.78e-07 $l=3.25e-07 $layer=LI1_cond $X=0.275 $Y=2.14
+ $X2=0.275 $Y2=2.465
r90 19 32 3.40559 $w=2.75e-07 $l=1.41244e-07 $layer=LI1_cond $X=0.17 $Y=1.97
+ $X2=0.275 $Y2=2.055
r91 18 31 6.17543 $w=2.65e-07 $l=2.07123e-07 $layer=LI1_cond $X=0.17 $Y=1.23
+ $X2=0.265 $Y2=1.065
r92 18 19 48.2781 $w=1.68e-07 $l=7.4e-07 $layer=LI1_cond $X=0.17 $Y=1.23
+ $X2=0.17 $Y2=1.97
r93 14 31 6.17543 $w=2.65e-07 $l=1.65e-07 $layer=LI1_cond $X=0.265 $Y=0.9
+ $X2=0.265 $Y2=1.065
r94 14 16 10.2439 $w=3.58e-07 $l=3.2e-07 $layer=LI1_cond $X=0.265 $Y=0.9
+ $X2=0.265 $Y2=0.58
r95 12 44 194.355 $w=1.8e-07 $l=5e-07 $layer=POLY_cond $X=2.015 $Y=2.64
+ $X2=2.015 $Y2=2.14
r96 9 40 102.827 $w=1.5e-07 $l=3.2e-07 $layer=POLY_cond $X=1.07 $Y=0.58 $X2=1.07
+ $Y2=0.9
r97 2 22 300 $w=1.7e-07 $l=2.05061e-07 $layer=licon1_PDIFF $count=2 $X=0.155
+ $Y=2.32 $X2=0.3 $Y2=2.465
r98 1 16 182 $w=1.7e-07 $l=2.73038e-07 $layer=licon1_NDIFF $count=1 $X=0.135
+ $Y=0.37 $X2=0.28 $Y2=0.58
.ends

.subckt PM_SKY130_FD_SC_MS__SDFSBP_2%SCE 3 7 11 15 18 21 22 23 25 32 33 34
c78 32 0 1.76481e-19 $X=2.13 $Y=1.065
r79 32 34 46.8261 $w=5.1e-07 $l=1.65e-07 $layer=POLY_cond $X=2.22 $Y=1.065
+ $X2=2.22 $Y2=0.9
r80 32 33 72.64 $w=1.7e-07 $l=3.4e-07 $layer=licon1_POLY $count=2 $X=2.13
+ $Y=1.065 $X2=2.13 $Y2=1.065
r81 27 28 4.49068 $w=3.22e-07 $l=3e-08 $layer=POLY_cond $X=0.495 $Y=1.635
+ $X2=0.525 $Y2=1.635
r82 25 33 8.03218 $w=3.28e-07 $l=2.3e-07 $layer=LI1_cond $X=2.13 $Y=1.295
+ $X2=2.13 $Y2=1.065
r83 24 25 3.66686 $w=3.28e-07 $l=1.05e-07 $layer=LI1_cond $X=2.13 $Y=1.4
+ $X2=2.13 $Y2=1.295
r84 22 30 15.7174 $w=3.22e-07 $l=1.05e-07 $layer=POLY_cond $X=0.92 $Y=1.635
+ $X2=1.025 $Y2=1.635
r85 22 28 59.1273 $w=3.22e-07 $l=3.95e-07 $layer=POLY_cond $X=0.92 $Y=1.635
+ $X2=0.525 $Y2=1.635
r86 21 23 8.64761 $w=3.98e-07 $l=1.65e-07 $layer=LI1_cond $X=0.92 $Y=1.6
+ $X2=1.085 $Y2=1.6
r87 21 22 72.64 $w=1.7e-07 $l=3.4e-07 $layer=licon1_POLY $count=2 $X=0.92
+ $Y=1.635 $X2=0.92 $Y2=1.635
r88 18 24 7.76618 $w=1.7e-07 $l=2.03101e-07 $layer=LI1_cond $X=1.965 $Y=1.485
+ $X2=2.13 $Y2=1.4
r89 18 23 57.4118 $w=1.68e-07 $l=8.8e-07 $layer=LI1_cond $X=1.965 $Y=1.485
+ $X2=1.085 $Y2=1.485
r90 15 34 102.827 $w=1.5e-07 $l=3.2e-07 $layer=POLY_cond $X=2.4 $Y=0.58 $X2=2.4
+ $Y2=0.9
r91 9 30 16.3606 $w=1.8e-07 $l=1.65e-07 $layer=POLY_cond $X=1.025 $Y=1.8
+ $X2=1.025 $Y2=1.635
r92 9 11 326.516 $w=1.8e-07 $l=8.4e-07 $layer=POLY_cond $X=1.025 $Y=1.8
+ $X2=1.025 $Y2=2.64
r93 5 28 16.3606 $w=1.8e-07 $l=1.65e-07 $layer=POLY_cond $X=0.525 $Y=1.8
+ $X2=0.525 $Y2=1.635
r94 5 7 326.516 $w=1.8e-07 $l=8.4e-07 $layer=POLY_cond $X=0.525 $Y=1.8 $X2=0.525
+ $Y2=2.64
r95 1 27 20.6399 $w=1.5e-07 $l=1.65e-07 $layer=POLY_cond $X=0.495 $Y=1.47
+ $X2=0.495 $Y2=1.635
r96 1 3 456.362 $w=1.5e-07 $l=8.9e-07 $layer=POLY_cond $X=0.495 $Y=1.47
+ $X2=0.495 $Y2=0.58
.ends

.subckt PM_SKY130_FD_SC_MS__SDFSBP_2%D 1 3 7 10 11 12 16 18
r46 16 19 46.2115 $w=3.3e-07 $l=1.65e-07 $layer=POLY_cond $X=1.55 $Y=1.065
+ $X2=1.55 $Y2=1.23
r47 16 18 46.2115 $w=3.3e-07 $l=1.65e-07 $layer=POLY_cond $X=1.55 $Y=1.065
+ $X2=1.55 $Y2=0.9
r48 16 17 145.28 $w=1.7e-07 $l=1.7e-07 $layer=licon1_POLY $count=1 $X=1.55
+ $Y=1.065 $X2=1.55 $Y2=1.065
r49 12 17 3.93517 $w=4.08e-07 $l=1.4e-07 $layer=LI1_cond $X=1.59 $Y=0.925
+ $X2=1.59 $Y2=1.065
r50 11 12 10.4001 $w=4.08e-07 $l=3.7e-07 $layer=LI1_cond $X=1.59 $Y=0.555
+ $X2=1.59 $Y2=0.925
r51 10 19 123.064 $w=1.5e-07 $l=2.4e-07 $layer=POLY_cond $X=1.46 $Y=1.47
+ $X2=1.46 $Y2=1.23
r52 7 18 102.827 $w=1.5e-07 $l=3.2e-07 $layer=POLY_cond $X=1.46 $Y=0.58 $X2=1.46
+ $Y2=0.9
r53 1 10 37.1337 $w=1.8e-07 $l=9e-08 $layer=POLY_cond $X=1.445 $Y=1.56 $X2=1.445
+ $Y2=1.47
r54 1 3 419.806 $w=1.8e-07 $l=1.08e-06 $layer=POLY_cond $X=1.445 $Y=1.56
+ $X2=1.445 $Y2=2.64
.ends

.subckt PM_SKY130_FD_SC_MS__SDFSBP_2%SCD 3 5 6 9 12 14 15 16 19
r51 19 21 46.1517 $w=4.2e-07 $l=1.65e-07 $layer=POLY_cond $X=2.925 $Y=1.115
+ $X2=2.925 $Y2=0.95
r52 19 20 72.64 $w=1.7e-07 $l=3.4e-07 $layer=licon1_POLY $count=2 $X=2.97
+ $Y=1.115 $X2=2.97 $Y2=1.115
r53 16 20 2.67779 $w=6.68e-07 $l=1.5e-07 $layer=LI1_cond $X=3.12 $Y=1.285
+ $X2=2.97 $Y2=1.285
r54 14 15 97.4255 $w=1.5e-07 $l=1.9e-07 $layer=POLY_cond $X=2.79 $Y=1.81
+ $X2=2.79 $Y2=1.62
r55 12 15 52.1105 $w=4.2e-07 $l=2.1e-07 $layer=POLY_cond $X=2.925 $Y=1.41
+ $X2=2.925 $Y2=1.62
r56 11 19 5.95879 $w=4.2e-07 $l=4.5e-08 $layer=POLY_cond $X=2.925 $Y=1.16
+ $X2=2.925 $Y2=1.115
r57 11 12 33.1044 $w=4.2e-07 $l=2.5e-07 $layer=POLY_cond $X=2.925 $Y=1.16
+ $X2=2.925 $Y2=1.41
r58 9 21 189.723 $w=1.5e-07 $l=3.7e-07 $layer=POLY_cond $X=2.79 $Y=0.58 $X2=2.79
+ $Y2=0.95
r59 5 14 26.9307 $w=1.5e-07 $l=1.06066e-07 $layer=POLY_cond $X=2.715 $Y=1.885
+ $X2=2.79 $Y2=1.81
r60 5 6 97.4255 $w=1.5e-07 $l=1.9e-07 $layer=POLY_cond $X=2.715 $Y=1.885
+ $X2=2.525 $Y2=1.885
r61 1 6 27.2212 $w=1.5e-07 $l=1.21861e-07 $layer=POLY_cond $X=2.435 $Y=1.96
+ $X2=2.525 $Y2=1.885
r62 1 3 264.323 $w=1.8e-07 $l=6.8e-07 $layer=POLY_cond $X=2.435 $Y=1.96
+ $X2=2.435 $Y2=2.64
.ends

.subckt PM_SKY130_FD_SC_MS__SDFSBP_2%CLK 3 5 7 8 14
c37 14 0 1.34113e-19 $X=3.83 $Y=1.385
c38 5 0 9.27061e-20 $X=3.78 $Y=1.22
r39 14 15 145.28 $w=1.7e-07 $l=1.7e-07 $layer=licon1_POLY $count=1 $X=3.83
+ $Y=1.385 $X2=3.83 $Y2=1.385
r40 12 14 8.74306 $w=3.3e-07 $l=5e-08 $layer=POLY_cond $X=3.78 $Y=1.385 $X2=3.83
+ $Y2=1.385
r41 10 12 55.0813 $w=3.3e-07 $l=3.15e-07 $layer=POLY_cond $X=3.465 $Y=1.385
+ $X2=3.78 $Y2=1.385
r42 8 15 7.78678 $w=3.68e-07 $l=2.5e-07 $layer=LI1_cond $X=4.08 $Y=1.365
+ $X2=3.83 $Y2=1.365
r43 5 12 21.2229 $w=1.5e-07 $l=1.65e-07 $layer=POLY_cond $X=3.78 $Y=1.22
+ $X2=3.78 $Y2=1.385
r44 5 7 154.24 $w=1.5e-07 $l=4.8e-07 $layer=POLY_cond $X=3.78 $Y=1.22 $X2=3.78
+ $Y2=0.74
r45 1 10 16.9318 $w=1.8e-07 $l=1.65e-07 $layer=POLY_cond $X=3.465 $Y=1.55
+ $X2=3.465 $Y2=1.385
r46 1 3 330.403 $w=1.8e-07 $l=8.5e-07 $layer=POLY_cond $X=3.465 $Y=1.55
+ $X2=3.465 $Y2=2.4
.ends

.subckt PM_SKY130_FD_SC_MS__SDFSBP_2%A_871_74# 1 2 9 11 12 15 19 23 25 26 27 31
+ 35 38 42 44 45 46 47 50 51 57 58 61 62 65 66 67 69 70 71 73 75 78 81 84 85 86
+ 96
c258 81 0 1.33892e-19 $X=11.225 $Y=1.365
c259 78 0 7.75954e-20 $X=10.545 $Y=1.365
c260 71 0 1.57484e-19 $X=8.165 $Y=2.135
c261 57 0 1.02354e-19 $X=6.185 $Y=1.135
c262 45 0 9.27061e-20 $X=4.66 $Y=0.34
c263 44 0 1.10104e-19 $X=5.39 $Y=0.34
c264 35 0 1.21895e-19 $X=5.395 $Y=1.96
c265 9 0 9.66268e-20 $X=5.43 $Y=2.525
r266 82 96 46.1517 $w=4.2e-07 $l=1.65e-07 $layer=POLY_cond $X=11.225 $Y=1.41
+ $X2=11.39 $Y2=1.41
r267 81 82 96.8533 $w=1.7e-07 $l=2.55e-07 $layer=licon1_POLY $count=1 $X=11.225
+ $Y=1.365 $X2=11.225 $Y2=1.365
r268 79 94 30.5693 $w=3.39e-07 $l=2.15e-07 $layer=POLY_cond $X=10.545 $Y=1.41
+ $X2=10.76 $Y2=1.41
r269 78 86 8.03587 $w=3.28e-07 $l=1.65e-07 $layer=LI1_cond $X=10.545 $Y=1.365
+ $X2=10.38 $Y2=1.365
r270 78 81 23.7473 $w=3.28e-07 $l=6.8e-07 $layer=LI1_cond $X=10.545 $Y=1.365
+ $X2=11.225 $Y2=1.365
r271 78 79 96.8533 $w=1.7e-07 $l=2.55e-07 $layer=licon1_POLY $count=1 $X=10.545
+ $Y=1.365 $X2=10.545 $Y2=1.365
r272 75 86 118.412 $w=1.68e-07 $l=1.815e-06 $layer=LI1_cond $X=8.565 $Y=1.43
+ $X2=10.38 $Y2=1.43
r273 72 75 6.81649 $w=1.7e-07 $l=1.20208e-07 $layer=LI1_cond $X=8.48 $Y=1.515
+ $X2=8.565 $Y2=1.43
r274 72 73 34.9037 $w=1.68e-07 $l=5.35e-07 $layer=LI1_cond $X=8.48 $Y=1.515
+ $X2=8.48 $Y2=2.05
r275 70 73 6.81649 $w=1.7e-07 $l=1.20208e-07 $layer=LI1_cond $X=8.395 $Y=2.135
+ $X2=8.48 $Y2=2.05
r276 70 71 15.0053 $w=1.68e-07 $l=2.3e-07 $layer=LI1_cond $X=8.395 $Y=2.135
+ $X2=8.165 $Y2=2.135
r277 68 71 6.81649 $w=1.7e-07 $l=1.20208e-07 $layer=LI1_cond $X=8.08 $Y=2.22
+ $X2=8.165 $Y2=2.135
r278 68 69 44.6898 $w=1.68e-07 $l=6.85e-07 $layer=LI1_cond $X=8.08 $Y=2.22
+ $X2=8.08 $Y2=2.905
r279 66 69 6.81649 $w=1.7e-07 $l=1.20208e-07 $layer=LI1_cond $X=7.995 $Y=2.99
+ $X2=8.08 $Y2=2.905
r280 66 67 43.7112 $w=1.68e-07 $l=6.7e-07 $layer=LI1_cond $X=7.995 $Y=2.99
+ $X2=7.325 $Y2=2.99
r281 65 67 6.81649 $w=1.7e-07 $l=1.20208e-07 $layer=LI1_cond $X=7.24 $Y=2.905
+ $X2=7.325 $Y2=2.99
r282 64 65 37.1872 $w=1.68e-07 $l=5.7e-07 $layer=LI1_cond $X=7.24 $Y=2.335
+ $X2=7.24 $Y2=2.905
r283 63 85 1.97946 $w=1.7e-07 $l=1.18e-07 $layer=LI1_cond $X=6.305 $Y=2.25
+ $X2=6.187 $Y2=2.25
r284 62 64 6.81649 $w=1.7e-07 $l=1.20208e-07 $layer=LI1_cond $X=7.155 $Y=2.25
+ $X2=7.24 $Y2=2.335
r285 62 63 55.4545 $w=1.68e-07 $l=8.5e-07 $layer=LI1_cond $X=7.155 $Y=2.25
+ $X2=6.305 $Y2=2.25
r286 60 85 4.45556 $w=2.02e-07 $l=9.97246e-08 $layer=LI1_cond $X=6.155 $Y=2.335
+ $X2=6.187 $Y2=2.25
r287 60 61 37.1872 $w=1.68e-07 $l=5.7e-07 $layer=LI1_cond $X=6.155 $Y=2.335
+ $X2=6.155 $Y2=2.905
r288 58 90 37.9199 $w=3.5e-07 $l=2.3e-07 $layer=POLY_cond $X=6.195 $Y=1.135
+ $X2=6.195 $Y2=1.365
r289 58 89 46.4315 $w=3.5e-07 $l=1.65e-07 $layer=POLY_cond $X=6.195 $Y=1.135
+ $X2=6.195 $Y2=0.97
r290 57 58 72.64 $w=1.7e-07 $l=3.4e-07 $layer=licon1_POLY $count=2 $X=6.185
+ $Y=1.135 $X2=6.185 $Y2=1.135
r291 55 85 4.45556 $w=2.02e-07 $l=8.5e-08 $layer=LI1_cond $X=6.187 $Y=2.165
+ $X2=6.187 $Y2=2.25
r292 55 57 50.5113 $w=2.33e-07 $l=1.03e-06 $layer=LI1_cond $X=6.187 $Y=2.165
+ $X2=6.187 $Y2=1.135
r293 53 84 56.4332 $w=1.68e-07 $l=8.65e-07 $layer=LI1_cond $X=5.475 $Y=0.425
+ $X2=5.475 $Y2=1.29
r294 50 84 8.46218 $w=3.28e-07 $l=1.65e-07 $layer=LI1_cond $X=5.395 $Y=1.455
+ $X2=5.395 $Y2=1.29
r295 50 51 72.64 $w=1.7e-07 $l=3.4e-07 $layer=licon1_POLY $count=2 $X=5.395
+ $Y=1.455 $X2=5.395 $Y2=1.455
r296 46 61 6.81649 $w=1.7e-07 $l=1.20208e-07 $layer=LI1_cond $X=6.07 $Y=2.99
+ $X2=6.155 $Y2=2.905
r297 46 47 88.0749 $w=1.68e-07 $l=1.35e-06 $layer=LI1_cond $X=6.07 $Y=2.99
+ $X2=4.72 $Y2=2.99
r298 44 53 6.81649 $w=1.7e-07 $l=1.20208e-07 $layer=LI1_cond $X=5.39 $Y=0.34
+ $X2=5.475 $Y2=0.425
r299 44 45 47.6257 $w=1.68e-07 $l=7.3e-07 $layer=LI1_cond $X=5.39 $Y=0.34
+ $X2=4.66 $Y2=0.34
r300 40 47 7.76618 $w=1.7e-07 $l=2.03101e-07 $layer=LI1_cond $X=4.555 $Y=2.905
+ $X2=4.72 $Y2=2.99
r301 40 42 6.28605 $w=3.28e-07 $l=1.8e-07 $layer=LI1_cond $X=4.555 $Y=2.905
+ $X2=4.555 $Y2=2.725
r302 36 45 7.76618 $w=1.7e-07 $l=2.03101e-07 $layer=LI1_cond $X=4.495 $Y=0.425
+ $X2=4.66 $Y2=0.34
r303 36 38 2.7938 $w=3.28e-07 $l=8e-08 $layer=LI1_cond $X=4.495 $Y=0.425
+ $X2=4.495 $Y2=0.505
r304 34 51 59.4528 $w=3.3e-07 $l=3.4e-07 $layer=POLY_cond $X=5.395 $Y=1.795
+ $X2=5.395 $Y2=1.455
r305 34 35 36.5727 $w=3.3e-07 $l=1.65e-07 $layer=POLY_cond $X=5.395 $Y=1.795
+ $X2=5.395 $Y2=1.96
r306 33 51 2.62292 $w=3.3e-07 $l=1.5e-08 $layer=POLY_cond $X=5.395 $Y=1.44
+ $X2=5.395 $Y2=1.455
r307 29 31 336.234 $w=1.8e-07 $l=8.65e-07 $layer=POLY_cond $X=11.76 $Y=1.62
+ $X2=11.76 $Y2=2.485
r308 27 29 27.2212 $w=1.5e-07 $l=1.21861e-07 $layer=POLY_cond $X=11.67 $Y=1.545
+ $X2=11.76 $Y2=1.62
r309 27 96 143.574 $w=1.5e-07 $l=2.8e-07 $layer=POLY_cond $X=11.67 $Y=1.545
+ $X2=11.39 $Y2=1.545
r310 26 94 10.5406 $w=4.2e-07 $l=7.5e-08 $layer=POLY_cond $X=10.835 $Y=1.41
+ $X2=10.76 $Y2=1.41
r311 25 82 5.95879 $w=4.2e-07 $l=4.5e-08 $layer=POLY_cond $X=11.18 $Y=1.41
+ $X2=11.225 $Y2=1.41
r312 25 26 45.6841 $w=4.2e-07 $l=3.45e-07 $layer=POLY_cond $X=11.18 $Y=1.41
+ $X2=10.835 $Y2=1.41
r313 21 94 21.8644 $w=1.5e-07 $l=2.1e-07 $layer=POLY_cond $X=10.76 $Y=1.2
+ $X2=10.76 $Y2=1.41
r314 21 23 261.511 $w=1.5e-07 $l=5.1e-07 $layer=POLY_cond $X=10.76 $Y=1.2
+ $X2=10.76 $Y2=0.69
r315 17 79 40.5221 $w=3.39e-07 $l=3.756e-07 $layer=POLY_cond $X=10.26 $Y=1.2
+ $X2=10.545 $Y2=1.41
r316 17 19 261.511 $w=1.5e-07 $l=5.1e-07 $layer=POLY_cond $X=10.26 $Y=1.2
+ $X2=10.26 $Y2=0.69
r317 15 89 182.032 $w=1.5e-07 $l=3.55e-07 $layer=POLY_cond $X=6.295 $Y=0.615
+ $X2=6.295 $Y2=0.97
r318 12 33 32.1775 $w=1.5e-07 $l=1.98997e-07 $layer=POLY_cond $X=5.56 $Y=1.365
+ $X2=5.395 $Y2=1.44
r319 11 90 22.6286 $w=1.5e-07 $l=1.75e-07 $layer=POLY_cond $X=6.02 $Y=1.365
+ $X2=6.195 $Y2=1.365
r320 11 12 235.872 $w=1.5e-07 $l=4.6e-07 $layer=POLY_cond $X=6.02 $Y=1.365
+ $X2=5.56 $Y2=1.365
r321 9 35 219.621 $w=1.8e-07 $l=5.65e-07 $layer=POLY_cond $X=5.43 $Y=2.525
+ $X2=5.43 $Y2=1.96
r322 2 42 600 $w=1.7e-07 $l=9.66269e-07 $layer=licon1_PDIFF $count=1 $X=4.385
+ $Y=1.84 $X2=4.555 $Y2=2.725
r323 1 38 91 $w=1.7e-07 $l=1.96214e-07 $layer=licon1_NDIFF $count=2 $X=4.355
+ $Y=0.37 $X2=4.495 $Y2=0.505
.ends

.subckt PM_SKY130_FD_SC_MS__SDFSBP_2%A_1252_376# 1 2 9 11 12 13 15 18 21 23 27
+ 31 38 39 42 46
c86 46 0 1.02354e-19 $X=6.89 $Y=1.1
c87 23 0 1.50114e-19 $X=7.38 $Y=0.955
c88 21 0 1.15615e-19 $X=6.8 $Y=1.865
c89 9 0 1.14714e-19 $X=6.35 $Y=2.525
r90 38 39 10.3829 $w=3.28e-07 $l=2.2e-07 $layer=LI1_cond $X=7.66 $Y=2.515
+ $X2=7.66 $Y2=2.295
r91 35 46 16.6207 $w=2.61e-07 $l=9e-08 $layer=POLY_cond $X=6.98 $Y=1.1 $X2=6.89
+ $Y2=1.1
r92 34 35 145.28 $w=1.7e-07 $l=1.7e-07 $layer=licon1_POLY $count=1 $X=6.98
+ $Y=1.1 $X2=6.98 $Y2=1.1
r93 31 34 5.06376 $w=3.28e-07 $l=1.45e-07 $layer=LI1_cond $X=6.98 $Y=0.955
+ $X2=6.98 $Y2=1.1
r94 29 39 19.5722 $w=1.68e-07 $l=3e-07 $layer=LI1_cond $X=7.58 $Y=1.995 $X2=7.58
+ $Y2=2.295
r95 25 27 10.1275 $w=3.28e-07 $l=2.9e-07 $layer=LI1_cond $X=7.545 $Y=0.87
+ $X2=7.545 $Y2=0.58
r96 24 31 4.62375 $w=1.7e-07 $l=1.65e-07 $layer=LI1_cond $X=7.145 $Y=0.955
+ $X2=6.98 $Y2=0.955
r97 23 25 7.76618 $w=1.7e-07 $l=2.03101e-07 $layer=LI1_cond $X=7.38 $Y=0.955
+ $X2=7.545 $Y2=0.87
r98 23 24 15.3316 $w=1.68e-07 $l=2.35e-07 $layer=LI1_cond $X=7.38 $Y=0.955
+ $X2=7.145 $Y2=0.955
r99 21 43 15.7375 $w=3.3e-07 $l=9e-08 $layer=POLY_cond $X=6.8 $Y=1.865 $X2=6.8
+ $Y2=1.955
r100 21 42 46.2115 $w=3.3e-07 $l=1.65e-07 $layer=POLY_cond $X=6.8 $Y=1.865
+ $X2=6.8 $Y2=1.7
r101 20 21 145.28 $w=1.7e-07 $l=1.7e-07 $layer=licon1_POLY $count=1 $X=6.8
+ $Y=1.865 $X2=6.8 $Y2=1.865
r102 18 29 7.21222 $w=2.6e-07 $l=1.67183e-07 $layer=LI1_cond $X=7.495 $Y=1.865
+ $X2=7.58 $Y2=1.995
r103 18 20 30.8057 $w=2.58e-07 $l=6.95e-07 $layer=LI1_cond $X=7.495 $Y=1.865
+ $X2=6.8 $Y2=1.865
r104 16 46 15.717 $w=1.5e-07 $l=1.65e-07 $layer=POLY_cond $X=6.89 $Y=1.265
+ $X2=6.89 $Y2=1.1
r105 16 42 223.053 $w=1.5e-07 $l=4.35e-07 $layer=POLY_cond $X=6.89 $Y=1.265
+ $X2=6.89 $Y2=1.7
r106 13 46 37.8582 $w=2.61e-07 $l=2.75409e-07 $layer=POLY_cond $X=6.685 $Y=0.935
+ $X2=6.89 $Y2=1.1
r107 13 15 102.827 $w=1.5e-07 $l=3.2e-07 $layer=POLY_cond $X=6.685 $Y=0.935
+ $X2=6.685 $Y2=0.615
r108 11 43 21.2229 $w=1.5e-07 $l=1.65e-07 $layer=POLY_cond $X=6.635 $Y=1.955
+ $X2=6.8 $Y2=1.955
r109 11 12 99.9894 $w=1.5e-07 $l=1.95e-07 $layer=POLY_cond $X=6.635 $Y=1.955
+ $X2=6.44 $Y2=1.955
r110 7 12 27.2212 $w=1.5e-07 $l=1.21861e-07 $layer=POLY_cond $X=6.35 $Y=2.03
+ $X2=6.44 $Y2=1.955
r111 7 9 192.411 $w=1.8e-07 $l=4.95e-07 $layer=POLY_cond $X=6.35 $Y=2.03
+ $X2=6.35 $Y2=2.525
r112 2 38 600 $w=1.7e-07 $l=2.58844e-07 $layer=licon1_PDIFF $count=1 $X=7.525
+ $Y=2.315 $X2=7.66 $Y2=2.515
r113 1 27 182 $w=1.7e-07 $l=2.73038e-07 $layer=licon1_NDIFF $count=1 $X=7.4
+ $Y=0.37 $X2=7.545 $Y2=0.58
.ends

.subckt PM_SKY130_FD_SC_MS__SDFSBP_2%A_1069_81# 1 2 9 13 15 19 23 24 28 32 34 35
+ 37 40 41 45 46 47 48 50 52 53 56 57 59 63
c179 59 0 4.48044e-20 $X=7.51 $Y=1.295
c180 57 0 1.14714e-19 $X=5.72 $Y=2.295
c181 56 0 1.21895e-19 $X=5.705 $Y=2.515
c182 47 0 1.15615e-19 $X=6.645 $Y=1.48
c183 34 0 1.14148e-19 $X=9.365 $Y=1.16
c184 28 0 7.75954e-20 $X=9.815 $Y=2.54
c185 19 0 3.30893e-19 $X=9.365 $Y=2.54
c186 9 0 1.57484e-19 $X=7.435 $Y=2.525
r187 63 70 12.1213 $w=3.38e-07 $l=8.5e-08 $layer=POLY_cond $X=7.52 $Y=1.4
+ $X2=7.435 $Y2=1.4
r188 62 64 3.90344 $w=3.08e-07 $l=1.05e-07 $layer=LI1_cond $X=7.51 $Y=1.375
+ $X2=7.51 $Y2=1.48
r189 62 63 145.28 $w=1.7e-07 $l=1.7e-07 $layer=licon1_POLY $count=1 $X=7.52
+ $Y=1.375 $X2=7.52 $Y2=1.375
r190 59 62 2.97405 $w=3.08e-07 $l=8e-08 $layer=LI1_cond $X=7.51 $Y=1.295
+ $X2=7.51 $Y2=1.375
r191 56 57 10.2717 $w=3.58e-07 $l=2.2e-07 $layer=LI1_cond $X=5.72 $Y=2.515
+ $X2=5.72 $Y2=2.295
r192 53 75 16.6118 $w=3.3e-07 $l=9.5e-08 $layer=POLY_cond $X=8.695 $Y=1.065
+ $X2=8.695 $Y2=1.16
r193 52 53 145.28 $w=1.7e-07 $l=1.7e-07 $layer=licon1_POLY $count=1 $X=8.695
+ $Y=1.065 $X2=8.695 $Y2=1.065
r194 50 68 16.8321 $w=1.68e-07 $l=2.58e-07 $layer=LI1_cond $X=7.965 $Y=1.037
+ $X2=7.965 $Y2=1.295
r195 50 52 27.03 $w=2.73e-07 $l=6.45e-07 $layer=LI1_cond $X=8.05 $Y=1.037
+ $X2=8.695 $Y2=1.037
r196 49 59 4.25403 $w=1.7e-07 $l=1.55e-07 $layer=LI1_cond $X=7.665 $Y=1.295
+ $X2=7.51 $Y2=1.295
r197 48 68 0.716491 $w=1.7e-07 $l=8.5e-08 $layer=LI1_cond $X=7.88 $Y=1.295
+ $X2=7.965 $Y2=1.295
r198 48 49 14.0267 $w=1.68e-07 $l=2.15e-07 $layer=LI1_cond $X=7.88 $Y=1.295
+ $X2=7.665 $Y2=1.295
r199 46 64 4.25403 $w=1.7e-07 $l=1.55e-07 $layer=LI1_cond $X=7.355 $Y=1.48
+ $X2=7.51 $Y2=1.48
r200 46 47 46.3209 $w=1.68e-07 $l=7.1e-07 $layer=LI1_cond $X=7.355 $Y=1.48
+ $X2=6.645 $Y2=1.48
r201 45 47 6.81649 $w=1.7e-07 $l=1.20208e-07 $layer=LI1_cond $X=6.56 $Y=1.395
+ $X2=6.645 $Y2=1.48
r202 44 45 38.8182 $w=1.68e-07 $l=5.95e-07 $layer=LI1_cond $X=6.56 $Y=0.8
+ $X2=6.56 $Y2=1.395
r203 41 43 2.96841 $w=3.28e-07 $l=8.5e-08 $layer=LI1_cond $X=5.9 $Y=0.635
+ $X2=5.985 $Y2=0.635
r204 40 44 7.76618 $w=3.3e-07 $l=2.03101e-07 $layer=LI1_cond $X=6.475 $Y=0.635
+ $X2=6.56 $Y2=0.8
r205 40 43 17.112 $w=3.28e-07 $l=4.9e-07 $layer=LI1_cond $X=6.475 $Y=0.635
+ $X2=5.985 $Y2=0.635
r206 38 41 7.76618 $w=3.3e-07 $l=2.03101e-07 $layer=LI1_cond $X=5.815 $Y=0.8
+ $X2=5.9 $Y2=0.635
r207 38 57 97.5348 $w=1.68e-07 $l=1.495e-06 $layer=LI1_cond $X=5.815 $Y=0.8
+ $X2=5.815 $Y2=2.295
r208 34 36 58.3064 $w=1.8e-07 $l=1.5e-07 $layer=POLY_cond $X=9.365 $Y=1.16
+ $X2=9.365 $Y2=1.31
r209 34 35 31.303 $w=1.8e-07 $l=7.5e-08 $layer=POLY_cond $X=9.365 $Y=1.16
+ $X2=9.365 $Y2=1.085
r210 30 37 18.8402 $w=1.65e-07 $l=8.21584e-08 $layer=POLY_cond $X=9.83 $Y=1.235
+ $X2=9.815 $Y2=1.31
r211 30 32 279.457 $w=1.5e-07 $l=5.45e-07 $layer=POLY_cond $X=9.83 $Y=1.235
+ $X2=9.83 $Y2=0.69
r212 26 37 18.8402 $w=1.65e-07 $l=7.5e-08 $layer=POLY_cond $X=9.815 $Y=1.385
+ $X2=9.815 $Y2=1.31
r213 26 28 448.96 $w=1.8e-07 $l=1.155e-06 $layer=POLY_cond $X=9.815 $Y=1.385
+ $X2=9.815 $Y2=2.54
r214 25 36 7.1379 $w=1.5e-07 $l=9e-08 $layer=POLY_cond $X=9.455 $Y=1.31
+ $X2=9.365 $Y2=1.31
r215 24 37 6.66866 $w=1.5e-07 $l=9e-08 $layer=POLY_cond $X=9.725 $Y=1.31
+ $X2=9.815 $Y2=1.31
r216 24 25 138.447 $w=1.5e-07 $l=2.7e-07 $layer=POLY_cond $X=9.725 $Y=1.31
+ $X2=9.455 $Y2=1.31
r217 23 35 126.927 $w=1.5e-07 $l=3.95e-07 $layer=POLY_cond $X=9.38 $Y=0.69
+ $X2=9.38 $Y2=1.085
r218 17 36 29.1532 $w=1.8e-07 $l=7.5e-08 $layer=POLY_cond $X=9.365 $Y=1.385
+ $X2=9.365 $Y2=1.31
r219 17 19 448.96 $w=1.8e-07 $l=1.155e-06 $layer=POLY_cond $X=9.365 $Y=1.385
+ $X2=9.365 $Y2=2.54
r220 16 75 21.2229 $w=1.5e-07 $l=1.65e-07 $layer=POLY_cond $X=8.86 $Y=1.16
+ $X2=8.695 $Y2=1.16
r221 15 34 7.1379 $w=1.5e-07 $l=9e-08 $layer=POLY_cond $X=9.275 $Y=1.16
+ $X2=9.365 $Y2=1.16
r222 15 16 212.798 $w=1.5e-07 $l=4.15e-07 $layer=POLY_cond $X=9.275 $Y=1.16
+ $X2=8.86 $Y2=1.16
r223 11 63 34.2249 $w=3.38e-07 $l=3.39411e-07 $layer=POLY_cond $X=7.76 $Y=1.16
+ $X2=7.52 $Y2=1.4
r224 11 13 297.404 $w=1.5e-07 $l=5.8e-07 $layer=POLY_cond $X=7.76 $Y=1.16
+ $X2=7.76 $Y2=0.58
r225 7 70 17.4907 $w=1.8e-07 $l=2.4e-07 $layer=POLY_cond $X=7.435 $Y=1.64
+ $X2=7.435 $Y2=1.4
r226 7 9 344.008 $w=1.8e-07 $l=8.85e-07 $layer=POLY_cond $X=7.435 $Y=1.64
+ $X2=7.435 $Y2=2.525
r227 2 56 600 $w=1.7e-07 $l=2.77489e-07 $layer=licon1_PDIFF $count=1 $X=5.52
+ $Y=2.315 $X2=5.705 $Y2=2.515
r228 1 43 182 $w=1.7e-07 $l=7.4619e-07 $layer=licon1_NDIFF $count=1 $X=5.345
+ $Y=0.405 $X2=5.985 $Y2=0.635
.ends

.subckt PM_SKY130_FD_SC_MS__SDFSBP_2%SET_B 3 7 11 15 19 20 21 22 25 27 30 31 33
c142 33 0 4.48044e-20 $X=8.06 $Y=1.715
c143 7 0 1.50114e-19 $X=8.15 $Y=0.58
r144 33 36 40.6903 $w=3.3e-07 $l=1.65e-07 $layer=POLY_cond $X=8.06 $Y=1.715
+ $X2=8.06 $Y2=1.88
r145 33 35 46.2115 $w=3.3e-07 $l=1.65e-07 $layer=POLY_cond $X=8.06 $Y=1.715
+ $X2=8.06 $Y2=1.55
r146 31 41 1.24963 $w=6.68e-07 $l=7e-08 $layer=LI1_cond $X=13.27 $Y=1.635
+ $X2=13.2 $Y2=1.635
r147 30 31 72.64 $w=1.7e-07 $l=3.4e-07 $layer=licon1_POLY $count=2 $X=13.27
+ $Y=1.465 $X2=13.27 $Y2=1.465
r148 27 41 9.3 $w=1.7e-07 $l=1.7e-07 $layer=mcon $count=1 $X=13.2 $Y=1.665
+ $X2=13.2 $Y2=1.665
r149 25 33 145.28 $w=1.7e-07 $l=1.7e-07 $layer=licon1_POLY $count=1 $X=8.06
+ $Y=1.715 $X2=8.06 $Y2=1.715
r150 24 25 9.3 $w=1.7e-07 $l=1.7e-07 $layer=mcon $count=1 $X=7.92 $Y=1.665
+ $X2=7.92 $Y2=1.665
r151 22 24 0.115467 $w=2.3e-07 $l=1.45e-07 $layer=MET1_cond $X=8.065 $Y=1.665
+ $X2=7.92 $Y2=1.665
r152 21 27 0.115467 $w=2.3e-07 $l=1.45e-07 $layer=MET1_cond $X=13.055 $Y=1.665
+ $X2=13.2 $Y2=1.665
r153 21 22 6.17573 $w=1.4e-07 $l=4.99e-06 $layer=MET1_cond $X=13.055 $Y=1.665
+ $X2=8.065 $Y2=1.665
r154 19 30 59.4528 $w=3.3e-07 $l=3.4e-07 $layer=POLY_cond $X=13.27 $Y=1.805
+ $X2=13.27 $Y2=1.465
r155 19 20 35.6818 $w=3.3e-07 $l=1.65e-07 $layer=POLY_cond $X=13.27 $Y=1.805
+ $X2=13.27 $Y2=1.97
r156 18 30 41.8716 $w=3.3e-07 $l=1.65e-07 $layer=POLY_cond $X=13.27 $Y=1.3
+ $X2=13.27 $Y2=1.465
r157 15 20 303.194 $w=1.8e-07 $l=7.8e-07 $layer=POLY_cond $X=13.25 $Y=2.75
+ $X2=13.25 $Y2=1.97
r158 11 18 369.191 $w=1.5e-07 $l=7.2e-07 $layer=POLY_cond $X=13.21 $Y=0.58
+ $X2=13.21 $Y2=1.3
r159 7 35 497.383 $w=1.5e-07 $l=9.7e-07 $layer=POLY_cond $X=8.15 $Y=0.58
+ $X2=8.15 $Y2=1.55
r160 3 36 250.718 $w=1.8e-07 $l=6.45e-07 $layer=POLY_cond $X=7.985 $Y=2.525
+ $X2=7.985 $Y2=1.88
.ends

.subckt PM_SKY130_FD_SC_MS__SDFSBP_2%A_619_368# 1 2 9 13 16 18 19 20 21 22 23 25
+ 28 30 33 34 36 37 38 39 41 42 45 46 47 48 49 50 52 54 55 56 57 58 60 63 66 67
+ 71 74 78 85 86 89 91
c262 78 0 1.49424e-19 $X=11.885 $Y=1.065
c263 71 0 1.34113e-19 $X=4.555 $Y=1.515
c264 60 0 1.33892e-19 $X=12.205 $Y=1.065
c265 49 0 1.00312e-19 $X=12.28 $Y=3.065
c266 42 0 7.31854e-20 $X=11.16 $Y=1.97
c267 34 0 1.53295e-19 $X=10.265 $Y=2.045
c268 23 0 9.15331e-20 $X=5.27 $Y=0.9
c269 19 0 1.10104e-19 $X=5.195 $Y=0.975
c270 18 0 1.52216e-19 $X=4.85 $Y=3.075
r271 89 95 18.3604 $w=3.3e-07 $l=1.05e-07 $layer=POLY_cond $X=8.9 $Y=1.795
+ $X2=8.795 $Y2=1.795
r272 88 91 8.58424 $w=2.73e-07 $l=1.65e-07 $layer=LI1_cond $X=8.9 $Y=1.822
+ $X2=9.065 $Y2=1.822
r273 88 89 145.28 $w=1.7e-07 $l=1.7e-07 $layer=licon1_POLY $count=1 $X=8.9
+ $Y=1.795 $X2=8.9 $Y2=1.795
r274 84 85 5.85433 $w=3.48e-07 $l=8.5e-08 $layer=LI1_cond $X=3.46 $Y=1.965
+ $X2=3.545 $Y2=1.965
r275 82 84 7.24393 $w=3.48e-07 $l=2.2e-07 $layer=LI1_cond $X=3.24 $Y=1.965
+ $X2=3.46 $Y2=1.965
r276 78 79 145.28 $w=1.7e-07 $l=1.7e-07 $layer=licon1_POLY $count=1 $X=11.885
+ $Y=1.065 $X2=11.885 $Y2=1.065
r277 76 78 22.1758 $w=3.28e-07 $l=6.35e-07 $layer=LI1_cond $X=11.885 $Y=1.7
+ $X2=11.885 $Y2=1.065
r278 74 76 7.76618 $w=1.7e-07 $l=2.03101e-07 $layer=LI1_cond $X=11.72 $Y=1.785
+ $X2=11.885 $Y2=1.7
r279 74 91 173.214 $w=1.68e-07 $l=2.655e-06 $layer=LI1_cond $X=11.72 $Y=1.785
+ $X2=9.065 $Y2=1.785
r280 71 72 145.28 $w=1.7e-07 $l=1.7e-07 $layer=licon1_POLY $count=1 $X=4.555
+ $Y=1.515 $X2=4.555 $Y2=1.515
r281 69 71 9.60369 $w=3.28e-07 $l=2.75e-07 $layer=LI1_cond $X=4.555 $Y=1.79
+ $X2=4.555 $Y2=1.515
r282 67 69 7.76618 $w=1.7e-07 $l=2.03101e-07 $layer=LI1_cond $X=4.39 $Y=1.875
+ $X2=4.555 $Y2=1.79
r283 67 85 55.1283 $w=1.68e-07 $l=8.45e-07 $layer=LI1_cond $X=4.39 $Y=1.875
+ $X2=3.545 $Y2=1.875
r284 66 84 4.974 $w=1.7e-07 $l=1.75e-07 $layer=LI1_cond $X=3.46 $Y=1.79 $X2=3.46
+ $Y2=1.965
r285 66 86 50.8877 $w=1.68e-07 $l=7.8e-07 $layer=LI1_cond $X=3.46 $Y=1.79
+ $X2=3.46 $Y2=1.01
r286 61 86 7.41084 $w=2.73e-07 $l=1.37e-07 $layer=LI1_cond $X=3.512 $Y=0.873
+ $X2=3.512 $Y2=1.01
r287 61 63 15.4218 $w=2.73e-07 $l=3.68e-07 $layer=LI1_cond $X=3.512 $Y=0.873
+ $X2=3.512 $Y2=0.505
r288 60 79 55.9556 $w=3.3e-07 $l=3.2e-07 $layer=POLY_cond $X=12.205 $Y=1.065
+ $X2=11.885 $Y2=1.065
r289 55 72 38.4695 $w=3.3e-07 $l=2.2e-07 $layer=POLY_cond $X=4.775 $Y=1.515
+ $X2=4.555 $Y2=1.515
r290 55 56 5.03009 $w=3.3e-07 $l=7.5e-08 $layer=POLY_cond $X=4.775 $Y=1.515
+ $X2=4.85 $Y2=1.515
r291 53 72 29.7264 $w=3.3e-07 $l=1.7e-07 $layer=POLY_cond $X=4.385 $Y=1.515
+ $X2=4.555 $Y2=1.515
r292 53 54 3.90195 $w=3.3e-07 $l=9e-08 $layer=POLY_cond $X=4.385 $Y=1.515
+ $X2=4.295 $Y2=1.515
r293 50 60 41.2111 $w=2.18e-07 $l=1.98997e-07 $layer=POLY_cond $X=12.43 $Y=0.9
+ $X2=12.355 $Y2=1.065
r294 50 52 102.827 $w=1.5e-07 $l=3.2e-07 $layer=POLY_cond $X=12.43 $Y=0.9
+ $X2=12.43 $Y2=0.58
r295 48 60 41.2111 $w=2.18e-07 $l=1.98997e-07 $layer=POLY_cond $X=12.28 $Y=1.23
+ $X2=12.355 $Y2=1.065
r296 48 49 940.926 $w=1.5e-07 $l=1.835e-06 $layer=POLY_cond $X=12.28 $Y=1.23
+ $X2=12.28 $Y2=3.065
r297 46 49 26.9307 $w=1.5e-07 $l=1.06066e-07 $layer=POLY_cond $X=12.205 $Y=3.14
+ $X2=12.28 $Y2=3.065
r298 46 47 458.926 $w=1.5e-07 $l=8.95e-07 $layer=POLY_cond $X=12.205 $Y=3.14
+ $X2=11.31 $Y2=3.14
r299 45 47 26.9307 $w=1.5e-07 $l=1.06066e-07 $layer=POLY_cond $X=11.235 $Y=3.065
+ $X2=11.31 $Y2=3.14
r300 44 45 523.021 $w=1.5e-07 $l=1.02e-06 $layer=POLY_cond $X=11.235 $Y=2.045
+ $X2=11.235 $Y2=3.065
r301 43 58 23.6879 $w=1.5e-07 $l=9e-08 $layer=POLY_cond $X=10.805 $Y=1.97
+ $X2=10.715 $Y2=1.97
r302 42 44 26.9307 $w=1.5e-07 $l=1.06066e-07 $layer=POLY_cond $X=11.16 $Y=1.97
+ $X2=11.235 $Y2=2.045
r303 42 43 182.032 $w=1.5e-07 $l=3.55e-07 $layer=POLY_cond $X=11.16 $Y=1.97
+ $X2=10.805 $Y2=1.97
r304 39 58 2.7459 $w=1.8e-07 $l=7.5e-08 $layer=POLY_cond $X=10.715 $Y=2.045
+ $X2=10.715 $Y2=1.97
r305 39 41 132.55 $w=1.8e-07 $l=4.95e-07 $layer=POLY_cond $X=10.715 $Y=2.045
+ $X2=10.715 $Y2=2.54
r306 37 58 23.6879 $w=1.5e-07 $l=9e-08 $layer=POLY_cond $X=10.625 $Y=1.97
+ $X2=10.715 $Y2=1.97
r307 37 38 138.447 $w=1.5e-07 $l=2.7e-07 $layer=POLY_cond $X=10.625 $Y=1.97
+ $X2=10.355 $Y2=1.97
r308 34 38 27.2212 $w=1.5e-07 $l=1.21861e-07 $layer=POLY_cond $X=10.265 $Y=2.045
+ $X2=10.355 $Y2=1.97
r309 34 36 132.55 $w=1.8e-07 $l=4.95e-07 $layer=POLY_cond $X=10.265 $Y=2.045
+ $X2=10.265 $Y2=2.54
r310 32 95 21.2229 $w=1.5e-07 $l=1.65e-07 $layer=POLY_cond $X=8.795 $Y=1.96
+ $X2=8.795 $Y2=1.795
r311 32 33 571.734 $w=1.5e-07 $l=1.115e-06 $layer=POLY_cond $X=8.795 $Y=1.96
+ $X2=8.795 $Y2=3.075
r312 31 57 23.6879 $w=1.5e-07 $l=9e-08 $layer=POLY_cond $X=6.02 $Y=3.15 $X2=5.93
+ $Y2=3.15
r313 30 33 26.9307 $w=1.5e-07 $l=1.06066e-07 $layer=POLY_cond $X=8.72 $Y=3.15
+ $X2=8.795 $Y2=3.075
r314 30 31 1384.47 $w=1.5e-07 $l=2.7e-06 $layer=POLY_cond $X=8.72 $Y=3.15
+ $X2=6.02 $Y2=3.15
r315 26 57 2.7459 $w=1.8e-07 $l=7.5e-08 $layer=POLY_cond $X=5.93 $Y=3.075
+ $X2=5.93 $Y2=3.15
r316 26 28 213.79 $w=1.8e-07 $l=5.5e-07 $layer=POLY_cond $X=5.93 $Y=3.075
+ $X2=5.93 $Y2=2.525
r317 23 25 91.58 $w=1.5e-07 $l=2.85e-07 $layer=POLY_cond $X=5.27 $Y=0.9 $X2=5.27
+ $Y2=0.615
r318 21 57 23.6879 $w=1.5e-07 $l=9e-08 $layer=POLY_cond $X=5.84 $Y=3.15 $X2=5.93
+ $Y2=3.15
r319 21 22 469.181 $w=1.5e-07 $l=9.15e-07 $layer=POLY_cond $X=5.84 $Y=3.15
+ $X2=4.925 $Y2=3.15
r320 19 23 26.9307 $w=1.5e-07 $l=1.06066e-07 $layer=POLY_cond $X=5.195 $Y=0.975
+ $X2=5.27 $Y2=0.9
r321 19 20 138.447 $w=1.5e-07 $l=2.7e-07 $layer=POLY_cond $X=5.195 $Y=0.975
+ $X2=4.925 $Y2=0.975
r322 18 22 26.9307 $w=1.5e-07 $l=1.06066e-07 $layer=POLY_cond $X=4.85 $Y=3.075
+ $X2=4.925 $Y2=3.15
r323 17 56 37.0704 $w=1.5e-07 $l=1.65e-07 $layer=POLY_cond $X=4.85 $Y=1.68
+ $X2=4.85 $Y2=1.515
r324 17 18 715.309 $w=1.5e-07 $l=1.395e-06 $layer=POLY_cond $X=4.85 $Y=1.68
+ $X2=4.85 $Y2=3.075
r325 16 56 37.0704 $w=1.5e-07 $l=1.65e-07 $layer=POLY_cond $X=4.85 $Y=1.35
+ $X2=4.85 $Y2=1.515
r326 15 20 26.9307 $w=1.5e-07 $l=1.06066e-07 $layer=POLY_cond $X=4.85 $Y=1.05
+ $X2=4.925 $Y2=0.975
r327 15 16 153.83 $w=1.5e-07 $l=3e-07 $layer=POLY_cond $X=4.85 $Y=1.05 $X2=4.85
+ $Y2=1.35
r328 11 54 34.7346 $w=1.65e-07 $l=1.65e-07 $layer=POLY_cond $X=4.295 $Y=1.68
+ $X2=4.295 $Y2=1.515
r329 11 13 279.871 $w=1.8e-07 $l=7.2e-07 $layer=POLY_cond $X=4.295 $Y=1.68
+ $X2=4.295 $Y2=2.4
r330 7 54 34.7346 $w=1.65e-07 $l=1.72337e-07 $layer=POLY_cond $X=4.28 $Y=1.35
+ $X2=4.295 $Y2=1.515
r331 7 9 312.787 $w=1.5e-07 $l=6.1e-07 $layer=POLY_cond $X=4.28 $Y=1.35 $X2=4.28
+ $Y2=0.74
r332 2 82 600 $w=1.7e-07 $l=2.41868e-07 $layer=licon1_PDIFF $count=1 $X=3.095
+ $Y=1.84 $X2=3.24 $Y2=2.02
r333 1 63 91 $w=1.7e-07 $l=2.01494e-07 $layer=licon1_NDIFF $count=2 $X=3.42
+ $Y=0.37 $X2=3.565 $Y2=0.505
.ends

.subckt PM_SKY130_FD_SC_MS__SDFSBP_2%A_2513_258# 1 2 9 13 17 18 21 22 24 25 28
+ 31 32 36
c96 9 0 1.21745e-19 $X=12.8 $Y=2.75
r97 34 36 5.22619 $w=4.28e-07 $l=1.95e-07 $layer=LI1_cond $X=14.035 $Y=2.695
+ $X2=14.23 $Y2=2.695
r98 31 36 6.22023 $w=1.7e-07 $l=2.15e-07 $layer=LI1_cond $X=14.23 $Y=2.48
+ $X2=14.23 $Y2=2.695
r99 30 32 3.70735 $w=2.5e-07 $l=2.26548e-07 $layer=LI1_cond $X=14.23 $Y=1.13
+ $X2=14.042 $Y2=1.045
r100 30 31 88.0749 $w=1.68e-07 $l=1.35e-06 $layer=LI1_cond $X=14.23 $Y=1.13
+ $X2=14.23 $Y2=2.48
r101 26 32 3.70735 $w=2.5e-07 $l=1.43332e-07 $layer=LI1_cond $X=13.935 $Y=0.96
+ $X2=14.042 $Y2=1.045
r102 26 28 13.2706 $w=3.28e-07 $l=3.8e-07 $layer=LI1_cond $X=13.935 $Y=0.96
+ $X2=13.935 $Y2=0.58
r103 24 32 2.76166 $w=1.7e-07 $l=2.72e-07 $layer=LI1_cond $X=13.77 $Y=1.045
+ $X2=14.042 $Y2=1.045