* File: sky130_fd_sc_ms__clkbuf_16.pex.spice
* Created: Wed Sep  2 12:00:15 2020
* Program "Calibre xRC"
* Version "v2018.4_34.26"
* Nominal Temperature: 27C
* Circuit Temperature: 27C
* 
.subckt PM_SKY130_FD_SC_MS__CLKBUF_16%A 3 7 11 15 19 23 27 31 33 34 35 36 55
c87 31 0 1.47622e-19 $X=1.86 $Y=2.4
r88 54 55 9.61737 $w=3.3e-07 $l=5.5e-08 $layer=POLY_cond $X=1.805 $Y=1.515
+ $X2=1.86 $Y2=1.515
r89 52 54 34.9723 $w=3.3e-07 $l=2e-07 $layer=POLY_cond $X=1.605 $Y=1.515
+ $X2=1.805 $Y2=1.515
r90 52 53 72.64 $w=1.7e-07 $l=3.4e-07 $layer=licon1_POLY $count=2 $X=1.605
+ $Y=1.515 $X2=1.605 $Y2=1.515
r91 50 52 34.0979 $w=3.3e-07 $l=1.95e-07 $layer=POLY_cond $X=1.41 $Y=1.515
+ $X2=1.605 $Y2=1.515
r92 49 50 6.12014 $w=3.3e-07 $l=3.5e-08 $layer=POLY_cond $X=1.375 $Y=1.515
+ $X2=1.41 $Y2=1.515
r93 48 49 72.5674 $w=3.3e-07 $l=4.15e-07 $layer=POLY_cond $X=0.96 $Y=1.515
+ $X2=1.375 $Y2=1.515
r94 47 48 6.12014 $w=3.3e-07 $l=3.5e-08 $layer=POLY_cond $X=0.925 $Y=1.515
+ $X2=0.96 $Y2=1.515
r95 45 47 59.4528 $w=3.3e-07 $l=3.4e-07 $layer=POLY_cond $X=0.585 $Y=1.515
+ $X2=0.925 $Y2=1.515
r96 45 46 72.64 $w=1.7e-07 $l=3.4e-07 $layer=licon1_POLY $count=2 $X=0.585
+ $Y=1.515 $X2=0.585 $Y2=1.515
r97 43 45 13.1146 $w=3.3e-07 $l=7.5e-08 $layer=POLY_cond $X=0.51 $Y=1.515
+ $X2=0.585 $Y2=1.515
r98 41 43 2.62292 $w=3.3e-07 $l=1.5e-08 $layer=POLY_cond $X=0.495 $Y=1.515
+ $X2=0.51 $Y2=1.515
r99 36 53 2.01008 $w=4.28e-07 $l=7.5e-08 $layer=LI1_cond $X=1.68 $Y=1.565
+ $X2=1.605 $Y2=1.565
r100 35 53 10.8544 $w=4.28e-07 $l=4.05e-07 $layer=LI1_cond $X=1.2 $Y=1.565
+ $X2=1.605 $Y2=1.565
r101 34 35 12.8645 $w=4.28e-07 $l=4.8e-07 $layer=LI1_cond $X=0.72 $Y=1.565
+ $X2=1.2 $Y2=1.565
r102 34 46 3.61813 $w=4.28e-07 $l=1.35e-07 $layer=LI1_cond $X=0.72 $Y=1.565
+ $X2=0.585 $Y2=1.565
r103 33 46 9.24634 $w=4.28e-07 $l=3.45e-07 $layer=LI1_cond $X=0.24 $Y=1.565
+ $X2=0.585 $Y2=1.565
r104 29 55 16.9318 $w=1.8e-07 $l=1.65e-07 $layer=POLY_cond $X=1.86 $Y=1.68
+ $X2=1.86 $Y2=1.515
r105 29 31 279.871 $w=1.8e-07 $l=7.2e-07 $layer=POLY_cond $X=1.86 $Y=1.68
+ $X2=1.86 $Y2=2.4
r106 25 54 21.2229 $w=1.5e-07 $l=1.65e-07 $layer=POLY_cond $X=1.805 $Y=1.35
+ $X2=1.805 $Y2=1.515
r107 25 27 394.83 $w=1.5e-07 $l=7.7e-07 $layer=POLY_cond $X=1.805 $Y=1.35
+ $X2=1.805 $Y2=0.58
r108 21 50 16.9318 $w=1.8e-07 $l=1.65e-07 $layer=POLY_cond $X=1.41 $Y=1.68
+ $X2=1.41 $Y2=1.515
r109 21 23 279.871 $w=1.8e-07 $l=7.2e-07 $layer=POLY_cond $X=1.41 $Y=1.68
+ $X2=1.41 $Y2=2.4
r110 17 49 21.2229 $w=1.5e-07 $l=1.65e-07 $layer=POLY_cond $X=1.375 $Y=1.35
+ $X2=1.375 $Y2=1.515
r111 17 19 394.83 $w=1.5e-07 $l=7.7e-07 $layer=POLY_cond $X=1.375 $Y=1.35
+ $X2=1.375 $Y2=0.58
r112 13 48 16.9318 $w=1.8e-07 $l=1.65e-07 $layer=POLY_cond $X=0.96 $Y=1.68
+ $X2=0.96 $Y2=1.515
r113 13 15 279.871 $w=1.8e-07 $l=7.2e-07 $layer=POLY_cond $X=0.96 $Y=1.68
+ $X2=0.96 $Y2=2.4
r114 9 47 21.2229 $w=1.5e-07 $l=1.65e-07 $layer=POLY_cond $X=0.925 $Y=1.35
+ $X2=0.925 $Y2=1.515
r115 9 11 394.83 $w=1.5e-07 $l=7.7e-07 $layer=POLY_cond $X=0.925 $Y=1.35
+ $X2=0.925 $Y2=0.58
r116 5 43 16.9318 $w=1.8e-07 $l=1.65e-07 $layer=POLY_cond $X=0.51 $Y=1.68
+ $X2=0.51 $Y2=1.515
r117 5 7 279.871 $w=1.8e-07 $l=7.2e-07 $layer=POLY_cond $X=0.51 $Y=1.68 $X2=0.51
+ $Y2=2.4
r118 1 41 21.2229 $w=1.5e-07 $l=1.65e-07 $layer=POLY_cond $X=0.495 $Y=1.35
+ $X2=0.495 $Y2=1.515
r119 1 3 394.83 $w=1.5e-07 $l=7.7e-07 $layer=POLY_cond $X=0.495 $Y=1.35
+ $X2=0.495 $Y2=0.58
.ends

.subckt PM_SKY130_FD_SC_MS__CLKBUF_16%A_114_74# 1 2 3 4 15 19 23 27 31 35 39 43
+ 47 51 55 59 63 67 71 75 79 83 87 91 95 99 103 107 111 115 119 123 127 131 135
+ 139 143 145 147 149 150 151 155 159 161 163 164 167 170 178 181 184 187 190
+ 193 195 196 251
c439 251 0 1.81624e-20 $X=9.105 $Y=1.355
r440 250 251 2.62292 $w=3.3e-07 $l=1.5e-08 $layer=POLY_cond $X=9.09 $Y=1.355
+ $X2=9.105 $Y2=1.355
r441 249 250 72.5674 $w=3.3e-07 $l=4.15e-07 $layer=POLY_cond $X=8.675 $Y=1.355
+ $X2=9.09 $Y2=1.355
r442 248 249 6.12014 $w=3.3e-07 $l=3.5e-08 $layer=POLY_cond $X=8.64 $Y=1.355
+ $X2=8.675 $Y2=1.355
r443 246 248 43.7153 $w=3.3e-07 $l=2.5e-07 $layer=POLY_cond $X=8.39 $Y=1.355
+ $X2=8.64 $Y2=1.355
r444 244 246 37.5952 $w=3.3e-07 $l=2.15e-07 $layer=POLY_cond $X=8.175 $Y=1.355
+ $X2=8.39 $Y2=1.355
r445 243 244 0.874306 $w=3.3e-07 $l=5e-09 $layer=POLY_cond $X=8.17 $Y=1.355
+ $X2=8.175 $Y2=1.355
r446 242 243 74.316 $w=3.3e-07 $l=4.25e-07 $layer=POLY_cond $X=7.745 $Y=1.355
+ $X2=8.17 $Y2=1.355
r447 241 242 4.37153 $w=3.3e-07 $l=2.5e-08 $layer=POLY_cond $X=7.72 $Y=1.355
+ $X2=7.745 $Y2=1.355
r448 239 241 45.4639 $w=3.3e-07 $l=2.6e-07 $layer=POLY_cond $X=7.46 $Y=1.355
+ $X2=7.72 $Y2=1.355
r449 237 239 33.2236 $w=3.3e-07 $l=1.9e-07 $layer=POLY_cond $X=7.27 $Y=1.355
+ $X2=7.46 $Y2=1.355
r450 236 237 4.37153 $w=3.3e-07 $l=2.5e-08 $layer=POLY_cond $X=7.245 $Y=1.355
+ $X2=7.27 $Y2=1.355
r451 235 236 74.316 $w=3.3e-07 $l=4.25e-07 $layer=POLY_cond $X=6.82 $Y=1.355
+ $X2=7.245 $Y2=1.355
r452 234 235 0.874306 $w=3.3e-07 $l=5e-09 $layer=POLY_cond $X=6.815 $Y=1.355
+ $X2=6.82 $Y2=1.355
r453 232 234 49.8355 $w=3.3e-07 $l=2.85e-07 $layer=POLY_cond $X=6.53 $Y=1.355
+ $X2=6.815 $Y2=1.355
r454 230 232 27.9778 $w=3.3e-07 $l=1.6e-07 $layer=POLY_cond $X=6.37 $Y=1.355
+ $X2=6.53 $Y2=1.355
r455 229 230 9.61737 $w=3.3e-07 $l=5.5e-08 $layer=POLY_cond $X=6.315 $Y=1.355
+ $X2=6.37 $Y2=1.355
r456 228 229 69.0702 $w=3.3e-07 $l=3.95e-07 $layer=POLY_cond $X=5.92 $Y=1.355
+ $X2=6.315 $Y2=1.355
r457 227 228 6.12014 $w=3.3e-07 $l=3.5e-08 $layer=POLY_cond $X=5.885 $Y=1.355
+ $X2=5.92 $Y2=1.355
r458 225 227 51.5841 $w=3.3e-07 $l=2.95e-07 $layer=POLY_cond $X=5.59 $Y=1.355
+ $X2=5.885 $Y2=1.355
r459 223 225 20.9834 $w=3.3e-07 $l=1.2e-07 $layer=POLY_cond $X=5.47 $Y=1.355
+ $X2=5.59 $Y2=1.355
r460 222 223 14.8632 $w=3.3e-07 $l=8.5e-08 $layer=POLY_cond $X=5.385 $Y=1.355
+ $X2=5.47 $Y2=1.355
r461 221 222 63.8244 $w=3.3e-07 $l=3.65e-07 $layer=POLY_cond $X=5.02 $Y=1.355
+ $X2=5.385 $Y2=1.355
r462 220 221 11.366 $w=3.3e-07 $l=6.5e-08 $layer=POLY_cond $X=4.955 $Y=1.355
+ $X2=5.02 $Y2=1.355
r463 218 220 48.9612 $w=3.3e-07 $l=2.8e-07 $layer=POLY_cond $X=4.675 $Y=1.355
+ $X2=4.955 $Y2=1.355
r464 216 218 18.3604 $w=3.3e-07 $l=1.05e-07 $layer=POLY_cond $X=4.57 $Y=1.355
+ $X2=4.675 $Y2=1.355
r465 215 216 20.109 $w=3.3e-07 $l=1.15e-07 $layer=POLY_cond $X=4.455 $Y=1.355
+ $X2=4.57 $Y2=1.355
r466 214 215 58.5785 $w=3.3e-07 $l=3.35e-07 $layer=POLY_cond $X=4.12 $Y=1.355
+ $X2=4.455 $Y2=1.355
r467 213 214 16.6118 $w=3.3e-07 $l=9.5e-08 $layer=POLY_cond $X=4.025 $Y=1.355
+ $X2=4.12 $Y2=1.355
r468 211 213 33.2236 $w=3.3e-07 $l=1.9e-07 $layer=POLY_cond $X=3.835 $Y=1.355
+ $X2=4.025 $Y2=1.355
r469 209 211 28.8521 $w=3.3e-07 $l=1.65e-07 $layer=POLY_cond $X=3.67 $Y=1.355
+ $X2=3.835 $Y2=1.355
r470 208 209 13.1146 $w=3.3e-07 $l=7.5e-08 $layer=POLY_cond $X=3.595 $Y=1.355
+ $X2=3.67 $Y2=1.355
r471 207 208 65.573 $w=3.3e-07 $l=3.75e-07 $layer=POLY_cond $X=3.22 $Y=1.355
+ $X2=3.595 $Y2=1.355
r472 206 207 9.61737 $w=3.3e-07 $l=5.5e-08 $layer=POLY_cond $X=3.165 $Y=1.355
+ $X2=3.22 $Y2=1.355
r473 204 206 33.2236 $w=3.3e-07 $l=1.9e-07 $layer=POLY_cond $X=2.975 $Y=1.355
+ $X2=3.165 $Y2=1.355
r474 202 204 35.8466 $w=3.3e-07 $l=2.05e-07 $layer=POLY_cond $X=2.77 $Y=1.355
+ $X2=2.975 $Y2=1.355
r475 201 202 6.12014 $w=3.3e-07 $l=3.5e-08 $layer=POLY_cond $X=2.735 $Y=1.355
+ $X2=2.77 $Y2=1.355
r476 200 201 72.5674 $w=3.3e-07 $l=4.15e-07 $layer=POLY_cond $X=2.32 $Y=1.355
+ $X2=2.735 $Y2=1.355
r477 198 200 2.62292 $w=3.3e-07 $l=1.5e-08 $layer=POLY_cond $X=2.305 $Y=1.355
+ $X2=2.32 $Y2=1.355
r478 196 246 145.28 $w=1.7e-07 $l=1.7e-07 $layer=licon1_POLY $count=1 $X=8.39
+ $Y=1.355 $X2=8.39 $Y2=1.355
r479 195 196 9.3 $w=1.7e-07 $l=1.7e-07 $layer=mcon $count=1 $X=8.39 $Y=1.295
+ $X2=8.39 $Y2=1.295
r480 193 239 145.28 $w=1.7e-07 $l=1.7e-07 $layer=licon1_POLY $count=1 $X=7.46
+ $Y=1.355 $X2=7.46 $Y2=1.355
r481 192 195 0.596692 $w=2.3e-07 $l=9.3e-07 $layer=MET1_cond $X=7.46 $Y=1.295
+ $X2=8.39 $Y2=1.295
r482 192 193 9.3 $w=1.7e-07 $l=1.7e-07 $layer=mcon $count=1 $X=7.46 $Y=1.295
+ $X2=7.46 $Y2=1.295
r483 190 232 145.28 $w=1.7e-07 $l=1.7e-07 $layer=licon1_POLY $count=1 $X=6.53
+ $Y=1.355 $X2=6.53 $Y2=1.355
r484 189 192 0.596692 $w=2.3e-07 $l=9.3e-07 $layer=MET1_cond $X=6.53 $Y=1.295
+ $X2=7.46 $Y2=1.295
r485 189 190 9.3 $w=1.7e-07 $l=1.7e-07 $layer=mcon $count=1 $X=6.53 $Y=1.295
+ $X2=6.53 $Y2=1.295
r486 187 225 145.28 $w=1.7e-07 $l=1.7e-07 $layer=licon1_POLY $count=1 $X=5.59
+ $Y=1.355 $X2=5.59 $Y2=1.355
r487 186 189 0.603108 $w=2.3e-07 $l=9.4e-07 $layer=MET1_cond $X=5.59 $Y=1.295
+ $X2=6.53 $Y2=1.295
r488 186 187 9.3 $w=1.7e-07 $l=1.7e-07 $layer=mcon $count=1 $X=5.59 $Y=1.295
+ $X2=5.59 $Y2=1.295
r489 184 218 145.28 $w=1.7e-07 $l=1.7e-07 $layer=licon1_POLY $count=1 $X=4.675
+ $Y=1.355 $X2=4.675 $Y2=1.355
r490 183 186 0.587068 $w=2.3e-07 $l=9.15e-07 $layer=MET1_cond $X=4.675 $Y=1.295
+ $X2=5.59 $Y2=1.295
r491 183 184 9.3 $w=1.7e-07 $l=1.7e-07 $layer=mcon $count=1 $X=4.675 $Y=1.295
+ $X2=4.675 $Y2=1.295
r492 181 211 145.28 $w=1.7e-07 $l=1.7e-07 $layer=licon1_POLY $count=1 $X=3.835
+ $Y=1.355 $X2=3.835 $Y2=1.355
r493 180 183 0.538948 $w=2.3e-07 $l=8.4e-07 $layer=MET1_cond $X=3.835 $Y=1.295
+ $X2=4.675 $Y2=1.295
r494 180 181 9.3 $w=1.7e-07 $l=1.7e-07 $layer=mcon $count=1 $X=3.835 $Y=1.295
+ $X2=3.835 $Y2=1.295
r495 178 204 145.28 $w=1.7e-07 $l=1.7e-07 $layer=licon1_POLY $count=1 $X=2.975
+ $Y=1.355 $X2=2.975 $Y2=1.355
r496 177 180 0.55178 $w=2.3e-07 $l=8.6e-07 $layer=MET1_cond $X=2.975 $Y=1.295
+ $X2=3.835 $Y2=1.295
r497 177 178 9.3 $w=1.7e-07 $l=1.7e-07 $layer=mcon $count=1 $X=2.975 $Y=1.295
+ $X2=2.975 $Y2=1.295
r498 174 274 13.3619 $w=2.1e-07 $l=2.3e-07 $layer=LI1_cond $X=2.087 $Y=1.295
+ $X2=2.087 $Y2=1.065
r499 173 177 0.564612 $w=2.3e-07 $l=8.8e-07 $layer=MET1_cond $X=2.095 $Y=1.295
+ $X2=2.975 $Y2=1.295
r500 173 174 9.3 $w=1.7e-07 $l=1.7e-07 $layer=mcon $count=1 $X=2.095 $Y=1.295
+ $X2=2.095 $Y2=1.295
r501 169 170 27.0749 $w=1.68e-07 $l=4.15e-07 $layer=LI1_cond $X=1.635 $Y=2.035
+ $X2=2.05 $Y2=2.035
r502 164 170 0.716491 $w=1.7e-07 $l=8.5e-08 $layer=LI1_cond $X=2.05 $Y=1.95
+ $X2=2.05 $Y2=2.035
r503 163 174 7.15932 $w=2.1e-07 $l=1.32212e-07 $layer=LI1_cond $X=2.05 $Y=1.41
+ $X2=2.087 $Y2=1.295
r504 163 164 35.2299 $w=1.68e-07 $l=5.4e-07 $layer=LI1_cond $X=2.05 $Y=1.41
+ $X2=2.05 $Y2=1.95
r505 162 167 7.02821 $w=1.7e-07 $l=1.25e-07 $layer=LI1_cond $X=1.675 $Y=1.065
+ $X2=1.55 $Y2=1.065
r506 161 274 1.9771 $w=1.7e-07 $l=1.22e-07 $layer=LI1_cond $X=1.965 $Y=1.065
+ $X2=2.087 $Y2=1.065
r507 161 162 18.9198 $w=1.68e-07 $l=2.9e-07 $layer=LI1_cond $X=1.965 $Y=1.065
+ $X2=1.675 $Y2=1.065
r508 159 169 24.2711 $w=3.28e-07 $l=6.95e-07 $layer=LI1_cond $X=1.635 $Y=2.815
+ $X2=1.635 $Y2=2.12
r509 153 167 0.00168595 $w=2.5e-07 $l=8.5e-08 $layer=LI1_cond $X=1.55 $Y=0.98
+ $X2=1.55 $Y2=1.065
r510 153 155 18.4391 $w=2.48e-07 $l=4e-07 $layer=LI1_cond $X=1.55 $Y=0.98
+ $X2=1.55 $Y2=0.58
r511 152 166 5.12568 $w=1.7e-07 $l=1.65e-07 $layer=LI1_cond $X=0.9 $Y=2.035
+ $X2=0.735 $Y2=2.035
r512 151 169 10.7647 $w=1.68e-07 $l=1.65e-07 $layer=LI1_cond $X=1.47 $Y=2.035
+ $X2=1.635 $Y2=2.035
r513 151 152 37.1872 $w=1.68e-07 $l=5.7e-07 $layer=LI1_cond $X=1.47 $Y=2.035
+ $X2=0.9 $Y2=2.035
r514 149 167 7.02821 $w=1.7e-07 $l=1.25e-07 $layer=LI1_cond $X=1.425 $Y=1.065
+ $X2=1.55 $Y2=1.065
r515 149 150 41.1016 $w=1.68e-07 $l=6.3e-07 $layer=LI1_cond $X=1.425 $Y=1.065
+ $X2=0.795 $Y2=1.065
r516 145 166 2.6405 $w=3.3e-07 $l=8.5e-08 $layer=LI1_cond $X=0.735 $Y=2.12
+ $X2=0.735 $Y2=2.035
r517 145 147 24.2711 $w=3.28e-07 $l=6.95e-07 $layer=LI1_cond $X=0.735 $Y=2.12
+ $X2=0.735 $Y2=2.815
r518 141 150 7.14316 $w=1.7e-07 $l=1.62019e-07 $layer=LI1_cond $X=0.67 $Y=0.98
+ $X2=0.795 $Y2=1.065
r519 141 143 18.4391 $w=2.48e-07 $l=4e-07 $layer=LI1_cond $X=0.67 $Y=0.98
+ $X2=0.67 $Y2=0.58
r520 137 251 21.2229 $w=1.5e-07 $l=1.65e-07 $layer=POLY_cond $X=9.105 $Y=1.19
+ $X2=9.105 $Y2=1.355
r521 137 139 312.787 $w=1.5e-07 $l=6.1e-07 $layer=POLY_cond $X=9.105 $Y=1.19
+ $X2=9.105 $Y2=0.58
r522 133 250 16.9318 $w=1.8e-07 $l=1.65e-07 $layer=POLY_cond $X=9.09 $Y=1.52
+ $X2=9.09 $Y2=1.355
r523 133 135 342.065 $w=1.8e-07 $l=8.8e-07 $layer=POLY_cond $X=9.09 $Y=1.52
+ $X2=9.09 $Y2=2.4
r524 129 249 21.2229 $w=1.5e-07 $l=1.65e-07 $layer=POLY_cond $X=8.675 $Y=1.19
+ $X2=8.675 $Y2=1.355
r525 129 131 312.787 $w=1.5e-07 $l=6.1e-07 $layer=POLY_cond $X=8.675 $Y=1.19
+ $X2=8.675 $Y2=0.58
r526 125 248 16.9318 $w=1.8e-07 $l=1.65e-07 $layer=POLY_cond $X=8.64 $Y=1.52
+ $X2=8.64 $Y2=1.355
r527 125 127 342.065 $w=1.8e-07 $l=8.8e-07 $layer=POLY_cond $X=8.64 $Y=1.52
+ $X2=8.64 $Y2=2.4
r528 121 244 21.2229 $w=1.5e-07 $l=1.65e-07 $layer=POLY_cond $X=8.175 $Y=1.19
+ $X2=8.175 $Y2=1.355
r529 121 123 312.787 $w=1.5e-07 $l=6.1e-07 $layer=POLY_cond $X=8.175 $Y=1.19
+ $X2=8.175 $Y2=0.58
r530 117 243 16.9318 $w=1.8e-07 $l=1.65e-07 $layer=POLY_cond $X=8.17 $Y=1.52
+ $X2=8.17 $Y2=1.355
r531 117 119 342.065 $w=1.8e-07 $l=8.8e-07 $layer=POLY_cond $X=8.17 $Y=1.52
+ $X2=8.17 $Y2=2.4
r532 113 242 21.2229 $w=1.5e-07 $l=1.65e-07 $layer=POLY_cond $X=7.745 $Y=1.19
+ $X2=7.745 $Y2=1.355
r533 113 115 312.787 $w=1.5e-07 $l=6.1e-07 $layer=POLY_cond $X=7.745 $Y=1.19
+ $X2=7.745 $Y2=0.58
r534 109 241 16.9318 $w=1.8e-07 $l=1.65e-07 $layer=POLY_cond $X=7.72 $Y=1.52
+ $X2=7.72 $Y2=1.355
r535 109 111 342.065 $w=1.8e-07 $l=8.8e-07 $layer=POLY_cond $X=7.72 $Y=1.52
+ $X2=7.72 $Y2=2.4
r536 105 237 16.9318 $w=1.8e-07 $l=1.65e-07 $layer=POLY_cond $X=7.27 $Y=1.52
+ $X2=7.27 $Y2=1.355
r537 105 107 342.065 $w=1.8e-07 $l=8.8e-07 $layer=POLY_cond $X=7.27 $Y=1.52
+ $X2=7.27 $Y2=2.4
r538 101 236 21.2229 $w=1.5e-07 $l=1.65e-07 $layer=POLY_cond $X=7.245 $Y=1.19
+ $X2=7.245 $Y2=1.355
r539 101 103 312.787 $w=1.5e-07 $l=6.1e-07 $layer=POLY_cond $X=7.245 $Y=1.19
+ $X2=7.245 $Y2=0.58
r540 97 234 21.2229 $w=1.5e-07 $l=1.65e-07 $layer=POLY_cond $X=6.815 $Y=1.19
+ $X2=6.815 $Y2=1.355
r541 97 99 312.787 $w=1.5e-07 $l=6.1e-07 $layer=POLY_cond $X=6.815 $Y=1.19
+ $X2=6.815 $Y2=0.58
r542 93 235 16.9318 $w=1.8e-07 $l=1.65e-07 $layer=POLY_cond $X=6.82 $Y=1.52
+ $X2=6.82 $Y2=1.355
r543 93 95 342.065 $w=1.8e-07 $l=8.8e-07 $layer=POLY_cond $X=6.82 $Y=1.52
+ $X2=6.82 $Y2=2.4
r544 89 230 16.9318 $w=1.8e-07 $l=1.65e-07 $layer=POLY_cond $X=6.37 $Y=1.52
+ $X2=6.37 $Y2=1.355
r545 89 91 342.065 $w=1.8e-07 $l=8.8e-07 $layer=POLY_cond $X=6.37 $Y=1.52
+ $X2=6.37 $Y2=2.4
r546 85 229 21.2229 $w=1.5e-07 $l=1.65e-07 $layer=POLY_cond $X=6.315 $Y=1.19
+ $X2=6.315 $Y2=1.355
r547 85 87 312.787 $w=1.5e-07 $l=6.1e-07 $layer=POLY_cond $X=6.315 $Y=1.19
+ $X2=6.315 $Y2=0.58
r548 81 228 16.9318 $w=1.8e-07 $l=1.65e-07 $layer=POLY_cond $X=5.92 $Y=1.52
+ $X2=5.92 $Y2=1.355
r549 81 83 342.065 $w=1.8e-07 $l=8.8e-07 $layer=POLY_cond $X=5.92 $Y=1.52
+ $X2=5.92 $Y2=2.4
r550 77 227 21.2229 $w=1.5e-07 $l=1.65e-07 $layer=POLY_cond $X=5.885 $Y=1.19
+ $X2=5.885 $Y2=1.355
r551 77 79 312.787 $w=1.5e-07 $l=6.1e-07 $layer=POLY_cond $X=5.885 $Y=1.19
+ $X2=5.885 $Y2=0.58
r552 73 223 16.9318 $w=1.8e-07 $l=1.65e-07 $layer=POLY_cond $X=5.47 $Y=1.52
+ $X2=5.47 $Y2=1.355
r553 73 75 342.065 $w=1.8e-07 $l=8.8e-07 $layer=POLY_cond $X=5.47 $Y=1.52
+ $X2=5.47 $Y2=2.4
r554 69 222 21.2229 $w=1.5e-07 $l=1.65e-07 $layer=POLY_cond $X=5.385 $Y=1.19
+ $X2=5.385 $Y2=1.355
r555 69 71 312.787 $w=1.5e-07 $l=6.1e-07 $layer=POLY_cond $X=5.385 $Y=1.19
+ $X2=5.385 $Y2=0.58
r556 65 221 16.9318 $w=1.8e-07 $l=1.65e-07 $layer=POLY_cond $X=5.02 $Y=1.52
+ $X2=5.02 $Y2=1.355
r557 65 67 342.065 $w=1.8e-07 $l=8.8e-07 $layer=POLY_cond $X=5.02 $Y=1.52
+ $X2=5.02 $Y2=2.4
r558 61 220 21.2229 $w=1.5e-07 $l=1.65e-07 $layer=POLY_cond $X=4.955 $Y=1.19
+ $X2=4.955 $Y2=1.355
r559 61 63 312.787 $w=1.5e-07 $l=6.1e-07 $layer=POLY_cond $X=4.955 $Y=1.19
+ $X2=4.955 $Y2=0.58
r560 57 216 16.9318 $w=1.8e-07 $l=1.65e-07 $layer=POLY_cond $X=4.57 $Y=1.52
+ $X2=4.57 $Y2=1.355
r561 57 59 342.065 $w=1.8e-07 $l=8.8e-07 $layer=POLY_cond $X=4.57 $Y=1.52
+ $X2=4.57 $Y2=2.4
r562 53 215 21.2229 $w=1.5e-07 $l=1.65e-07 $layer=POLY_cond $X=4.455 $Y=1.19
+ $X2=4.455 $Y2=1.355
r563 53 55 312.787 $w=1.5e-07 $l=6.1e-07 $layer=POLY_cond $X=4.455 $Y=1.19
+ $X2=4.455 $Y2=0.58
r564 49 214 16.9318 $w=1.8e-07 $l=1.65e-07 $layer=POLY_cond $X=4.12 $Y=1.52
+ $X2=4.12 $Y2=1.355
r565 49 51 342.065 $w=1.8e-07 $l=8.8e-07 $layer=POLY_cond $X=4.12 $Y=1.52
+ $X2=4.12 $Y2=2.4
r566 45 213 21.2229 $w=1.5e-07 $l=1.65e-07 $layer=POLY_cond $X=4.025 $Y=1.19
+ $X2=4.025 $Y2=1.355
r567 45 47 312.787 $w=1.5e-07 $l=6.1e-07 $layer=POLY_cond $X=4.025 $Y=1.19
+ $X2=4.025 $Y2=0.58
r568 41 209 16.9318 $w=1.8e-07 $l=1.65e-07 $layer=POLY_cond $X=3.67 $Y=1.52
+ $X2=3.67 $Y2=1.355
r569 41 43 342.065 $w=1.8e-07 $l=8.8e-07 $layer=POLY_cond $X=3.67 $Y=1.52
+ $X2=3.67 $Y2=2.4
r570 37 208 21.2229 $w=1.5e-07 $l=1.65e-07 $layer=POLY_cond $X=3.595 $Y=1.19
+ $X2=3.595 $Y2=1.355
r571 37 39 312.787 $w=1.5e-07 $l=6.1e-07 $layer=POLY_cond $X=3.595 $Y=1.19
+ $X2=3.595 $Y2=0.58
r572 33 207 16.9318 $w=1.8e-07 $l=1.65e-07 $layer=POLY_cond $X=3.22 $Y=1.52
+ $X2=3.22 $Y2=1.355
r573 33 35 342.065 $w=1.8e-07 $l=8.8e-07 $layer=POLY_cond $X=3.22 $Y=1.52
+ $X2=3.22 $Y2=2.4
r574 29 206 21.2229 $w=1.5e-07 $l=1.65e-07 $layer=POLY_cond $X=3.165 $Y=1.19
+ $X2=3.165 $Y2=1.355
r575 29 31 312.787 $w=1.5e-07 $l=6.1e-07 $layer=POLY_cond $X=3.165 $Y=1.19
+ $X2=3.165 $Y2=0.58
r576 25 202 16.9318 $w=1.8e-07 $l=1.65e-07 $layer=POLY_cond $X=2.77 $Y=1.52
+ $X2=2.77 $Y2=1.355
r577 25 27 342.065 $w=1.8e-07 $l=8.8e-07 $layer=POLY_cond $X=2.77 $Y=1.52
+ $X2=2.77 $Y2=2.4
r578 21 201 21.2229 $w=1.5e-07 $l=1.65e-07 $layer=POLY_cond $X=2.735 $Y=1.19
+ $X2=2.735 $Y2=1.355
r579 21 23 312.787 $w=1.5e-07 $l=6.1e-07 $layer=POLY_cond $X=2.735 $Y=1.19
+ $X2=2.735 $Y2=0.58
r580 17 200 16.9318 $w=1.8e-07 $l=1.65e-07 $layer=POLY_cond $X=2.32 $Y=1.52
+ $X2=2.32 $Y2=1.355
r581 17 19 342.065 $w=1.8e-07 $l=8.8e-07 $layer=POLY_cond $X=2.32 $Y=1.52
+ $X2=2.32 $Y2=2.4
r582 13 198 21.2229 $w=1.5e-07 $l=1.65e-07 $layer=POLY_cond $X=2.305 $Y=1.19
+ $X2=2.305 $Y2=1.355
r583 13 15 312.787 $w=1.5e-07 $l=6.1e-07 $layer=POLY_cond $X=2.305 $Y=1.19
+ $X2=2.305 $Y2=0.58
r584 4 169 400 $w=1.7e-07 $l=3.35783e-07 $layer=licon1_PDIFF $count=1 $X=1.5
+ $Y=1.84 $X2=1.635 $Y2=2.115
r585 4 159 400 $w=1.7e-07 $l=1.04031e-06 $layer=licon1_PDIFF $count=1 $X=1.5
+ $Y=1.84 $X2=1.635 $Y2=2.815
r586 3 166 400 $w=1.7e-07 $l=3.35783e-07 $layer=licon1_PDIFF $count=1 $X=0.6
+ $Y=1.84 $X2=0.735 $Y2=2.115
r587 3 147 400 $w=1.7e-07 $l=1.04031e-06 $layer=licon1_PDIFF $count=1 $X=0.6
+ $Y=1.84 $X2=0.735 $Y2=2.815
r588 2 155 182 $w=1.7e-07 $l=2.71109e-07 $layer=licon1_NDIFF $count=1 $X=1.45
+ $Y=0.37 $X2=1.59 $Y2=0.58
r589 1 143 182 $w=1.7e-07 $l=2.71109e-07 $layer=licon1_NDIFF $count=1 $X=0.57
+ $Y=0.37 $X2=0.71 $Y2=0.58
.ends

.subckt PM_SKY130_FD_SC_MS__CLKBUF_16%VPWR 1 2 3 4 5 6 7 8 9 10 11 34 36 42 46
+ 50 56 62 68 72 76 82 88 92 94 99 100 102 103 105 106 108 109 110 111 112 118
+ 135 140 145 154 157 160 163 167
r192 166 167 9.3 $w=1.7e-07 $l=1.7e-07 $layer=mcon $count=1 $X=9.36 $Y=3.33
+ $X2=9.36 $Y2=3.33
r193 163 164 9.3 $w=1.7e-07 $l=1.7e-07 $layer=mcon $count=1 $X=8.4 $Y=3.33
+ $X2=8.4 $Y2=3.33
r194 160 161 9.3 $w=1.7e-07 $l=1.7e-07 $layer=mcon $count=1 $X=7.44 $Y=3.33
+ $X2=7.44 $Y2=3.33
r195 157 158 4.65 $w=1.7e-07 $l=3.4e-07 $layer=mcon $count=2 $X=6.48 $Y=3.33
+ $X2=6.48 $Y2=3.33
r196 154 155 9.3 $w=1.7e-07 $l=1.7e-07 $layer=mcon $count=1 $X=2.16 $Y=3.33
+ $X2=2.16 $Y2=3.33
r197 151 152 9.3 $w=1.7e-07 $l=1.7e-07 $layer=mcon $count=1 $X=0.24 $Y=3.33
+ $X2=0.24 $Y2=3.33
r198 149 167 0.133793 $w=4.9e-07 $l=4.8e-07 $layer=MET1_cond $X=8.88 $Y=3.33
+ $X2=9.36 $Y2=3.33
r199 149 164 0.133793 $w=4.9e-07 $l=4.8e-07 $layer=MET1_cond $X=8.88 $Y=3.33
+ $X2=8.4 $Y2=3.33
r200 148 149 9.3 $w=1.7e-07 $l=1.7e-07 $layer=mcon $count=1 $X=8.88 $Y=3.33
+ $X2=8.88 $Y2=3.33
r201 146 163 8.61065 $w=1.7e-07 $l=1.65e-07 $layer=LI1_cond $X=8.56 $Y=3.33
+ $X2=8.395 $Y2=3.33
r202 146 148 20.877 $w=1.68e-07 $l=3.2e-07 $layer=LI1_cond $X=8.56 $Y=3.33
+ $X2=8.88 $Y2=3.33
r203 145 166 4.72267 $w=1.7e-07 $l=2.25e-07 $layer=LI1_cond $X=9.15 $Y=3.33
+ $X2=9.375 $Y2=3.33
r204 145 148 17.615 $w=1.68e-07 $l=2.7e-07 $layer=LI1_cond $X=9.15 $Y=3.33
+ $X2=8.88 $Y2=3.33
r205 144 164 0.133793 $w=4.9e-07 $l=4.8e-07 $layer=MET1_cond $X=7.92 $Y=3.33
+ $X2=8.4 $Y2=3.33
r206 144 161 0.133793 $w=4.9e-07 $l=4.8e-07 $layer=MET1_cond $X=7.92 $Y=3.33
+ $X2=7.44 $Y2=3.33
r207 143 144 9.3 $w=1.7e-07 $l=1.7e-07 $layer=mcon $count=1 $X=7.92 $Y=3.33
+ $X2=7.92 $Y2=3.33
r208 141 160 8.61065 $w=1.7e-07 $l=1.65e-07 $layer=LI1_cond $X=7.66 $Y=3.33
+ $X2=7.495 $Y2=3.33
r209 141 143 16.9626 $w=1.68e-07 $l=2.6e-07 $layer=LI1_cond $X=7.66 $Y=3.33
+ $X2=7.92 $Y2=3.33
r210 140 163 8.61065 $w=1.7e-07 $l=1.65e-07 $layer=LI1_cond $X=8.23 $Y=3.33
+ $X2=8.395 $Y2=3.33
r211 140 143 20.2246 $w=1.68e-07 $l=3.1e-07 $layer=LI1_cond $X=8.23 $Y=3.33
+ $X2=7.92 $Y2=3.33
r212 139 161 0.133793 $w=4.9e-07 $l=4.8e-07 $layer=MET1_cond $X=6.96 $Y=3.33
+ $X2=7.44 $Y2=3.33
r213 139 158 0.133793 $w=4.9e-07 $l=4.8e-07 $layer=MET1_cond $X=6.96 $Y=3.33
+ $X2=6.48 $Y2=3.33
r214 138 139 9.3 $w=1.7e-07 $l=1.7e-07 $layer=mcon $count=1 $X=6.96 $Y=3.33
+ $X2=6.96 $Y2=3.33
r215 136 157 8.61065 $w=1.7e-07 $l=1.65e-07 $layer=LI1_cond $X=6.76 $Y=3.33
+ $X2=6.595 $Y2=3.33
r216 136 138 13.0481 $w=1.68e-07 $l=2e-07 $layer=LI1_cond $X=6.76 $Y=3.33
+ $X2=6.96 $Y2=3.33
r217 135 160 8.61065 $w=1.7e-07 $l=1.65e-07 $layer=LI1_cond $X=7.33 $Y=3.33
+ $X2=7.495 $Y2=3.33
r218 135 138 24.139 $w=1.68e-07 $l=3.7e-07 $layer=LI1_cond $X=7.33 $Y=3.33
+ $X2=6.96 $Y2=3.33
r219 134 158 0.267585 $w=4.9e-07 $l=9.6e-07 $layer=MET1_cond $X=5.52 $Y=3.33
+ $X2=6.48 $Y2=3.33
r220 133 134 4.65 $w=1.7e-07 $l=3.4e-07 $layer=mcon $count=2 $X=5.52 $Y=3.33
+ $X2=5.52 $Y2=3.33
r221 130 131 4.65 $w=1.7e-07 $l=3.4e-07 $layer=mcon $count=2 $X=4.56 $Y=3.33
+ $X2=4.56 $Y2=3.33
r222 128 131 0.267585 $w=4.9e-07 $l=9.6e-07 $layer=MET1_cond $X=3.6 $Y=3.33
+ $X2=4.56 $Y2=3.33
r223 127 128 4.65 $w=1.7e-07 $l=3.4e-07 $layer=mcon $count=2 $X=3.6 $Y=3.33
+ $X2=3.6 $Y2=3.33
r224 125 128 0.267585 $w=4.9e-07 $l=9.6e-07 $layer=MET1_cond $X=2.64 $Y=3.33
+ $X2=3.6 $Y2=3.33
r225 125 155 0.133793 $w=4.9e-07 $l=4.8e-07 $layer=MET1_cond $X=2.64 $Y=3.33
+ $X2=2.16 $Y2=3.33
r226 124 125 9.3 $w=1.7e-07 $l=1.7e-07 $layer=mcon $count=1 $X=2.64 $Y=3.33
+ $X2=2.64 $Y2=3.33
r227 122 154 7.02821 $w=1.7e-07 $l=1.25e-07 $layer=LI1_cond $X=2.25 $Y=3.33
+ $X2=2.125 $Y2=3.33
r228 122 124 25.4438 $w=1.68e-07 $l=3.9e-07 $layer=LI1_cond $X=2.25 $Y=3.33
+ $X2=2.64 $Y2=3.33
r229 121 155 0.133793 $w=4.9e-07 $l=4.8e-07 $layer=MET1_cond $X=1.68 $Y=3.33
+ $X2=2.16 $Y2=3.33
r230 120 121 4.65 $w=1.7e-07 $l=3.4e-07 $layer=mcon $count=2 $X=1.68 $Y=3.33
+ $X2=1.68 $Y2=3.33
r231 118 154 7.02821 $w=1.7e-07 $l=1.25e-07 $layer=LI1_cond $X=2 $Y=3.33
+ $X2=2.125 $Y2=3.33
r232 118 120 20.877 $w=1.68e-07 $l=3.2e-07 $layer=LI1_cond $X=2 $Y=3.33 $X2=1.68
+ $Y2=3.33
r233 117 121 0.267585 $w=4.9e-07 $l=9.6e-07 $layer=MET1_cond $X=0.72 $Y=3.33
+ $X2=1.68 $Y2=3.33
r234 117 152 0.133793 $w=4.9e-07 $l=4.8e-07 $layer=MET1_cond $X=0.72 $Y=3.33
+ $X2=0.24 $Y2=3.33
r235 116 117 9.3 $w=1.7e-07 $l=1.7e-07 $layer=mcon $count=1 $X=0.72 $Y=3.33
+ $X2=0.72 $Y2=3.33
r236 114 151 4.0045 $w=1.7e-07 $l=1.85e-07 $layer=LI1_cond $X=0.37 $Y=3.33
+ $X2=0.185 $Y2=3.33
r237 114 116 22.8342 $w=1.68e-07 $l=3.5e-07 $layer=LI1_cond $X=0.37 $Y=3.33
+ $X2=0.72 $Y2=3.33
r238 112 134 0.200689 $w=4.9e-07 $l=7.2e-07 $layer=MET1_cond $X=4.8 $Y=3.33
+ $X2=5.52 $Y2=3.33
r239 112 131 0.0668963 $w=4.9e-07 $l=2.4e-07 $layer=MET1_cond $X=4.8 $Y=3.33
+ $X2=4.56 $Y2=3.33
r240 110 133 0.652406 $w=1.68e-07 $l=1e-08 $layer=LI1_cond $X=5.53 $Y=3.33
+ $X2=5.52 $Y2=3.33
r241 110 111 8.61065 $w=1.7e-07 $l=1.65e-07 $layer=LI1_cond $X=5.53 $Y=3.33
+ $X2=5.695 $Y2=3.33
r242 108 130 4.56684 $w=1.68e-07 $l=7e-08 $layer=LI1_cond $X=4.63 $Y=3.33
+ $X2=4.56 $Y2=3.33
r243 108 109 8.61065 $w=1.7e-07 $l=1.65e-07 $layer=LI1_cond $X=4.63 $Y=3.33
+ $X2=4.795 $Y2=3.33
r244 107 133 36.5348 $w=1.68e-07 $l=5.6e-07 $layer=LI1_cond $X=4.96 $Y=3.33
+ $X2=5.52 $Y2=3.33
r245 107 109 8.61065 $w=1.7e-07 $l=1.65e-07 $layer=LI1_cond $X=4.96 $Y=3.33
+ $X2=4.795 $Y2=3.33
r246 105 127 8.48128 $w=1.68e-07 $l=1.3e-07 $layer=LI1_cond $X=3.73 $Y=3.33
+ $X2=3.6 $Y2=3.33
r247 105 106 8.61065 $w=1.7e-07 $l=1.65e-07 $layer=LI1_cond $X=3.73 $Y=3.33
+ $X2=3.895 $Y2=3.33
r248 104 130 32.6203 $w=1.68e-07 $l=5e-07 $layer=LI1_cond $X=4.06 $Y=3.33
+ $X2=4.56 $Y2=3.33
r249 104 106 8.61065 $w=1.7e-07 $l=1.65e-07 $layer=LI1_cond $X=4.06 $Y=3.33
+ $X2=3.895 $Y2=3.33
r250 102 124 12.3957 $w=1.68e-07 $l=1.9e-07 $layer=LI1_cond $X=2.83 $Y=3.33
+ $X2=2.64 $Y2=3.33
r251 102 103 8.61065 $w=1.7e-07 $l=1.65e-07 $layer=LI1_cond $X=2.83 $Y=3.33
+ $X2=2.995 $Y2=3.33
r252 101 127 28.7059 $w=1.68e-07 $l=4.4e-07 $layer=LI1_cond $X=3.16 $Y=3.33
+ $X2=3.6 $Y2=3.33
r253 101 103 8.61065 $w=1.7e-07 $l=1.65e-07 $layer=LI1_cond $X=3.16 $Y=3.33
+ $X2=2.995 $Y2=3.33
r254 99 116 24.7914 $w=1.68e-07 $l=3.8e-07 $layer=LI1_cond $X=1.1 $Y=3.33
+ $X2=0.72 $Y2=3.33
r255 99 100 5.16603 $w=1.7e-07 $l=8.5e-08 $layer=LI1_cond $X=1.1 $Y=3.33
+ $X2=1.185 $Y2=3.33
r256 98 120 26.7487 $w=1.68e-07 $l=4.1e-07 $layer=LI1_cond $X=1.27 $Y=3.33
+ $X2=1.68 $Y2=3.33
r257 98 100 5.16603 $w=1.7e-07 $l=8.5e-08 $layer=LI1_cond $X=1.27 $Y=3.33
+ $X2=1.185 $Y2=3.33
r258 94 97 24.4458 $w=3.28e-07 $l=7e-07 $layer=LI1_cond $X=9.315 $Y=2.115
+ $X2=9.315 $Y2=2.815
r259 92 166 3.0435 $w=3.3e-07 $l=1.11018e-07 $layer=LI1_cond $X=9.315 $Y=3.245
+ $X2=9.375 $Y2=3.33
r260 92 97 15.0167 $w=3.28e-07 $l=4.3e-07 $layer=LI1_cond $X=9.315 $Y=3.245
+ $X2=9.315 $Y2=2.815
r261 88 91 24.4458 $w=3.28e-07 $l=7e-07 $layer=LI1_cond $X=8.395 $Y=2.115
+ $X2=8.395 $Y2=2.815
r262 86 163 0.89609 $w=3.3e-07 $l=8.5e-08 $layer=LI1_cond $X=8.395 $Y=3.245
+ $X2=8.395 $Y2=3.33
r263 86 91 15.0167 $w=3.28e-07 $l=4.3e-07 $layer=LI1_cond $X=8.395 $Y=3.245
+ $X2=8.395 $Y2=2.815
r264 82 85 24.4458 $w=3.28e-07 $l=7e-07 $layer=LI1_cond $X=7.495 $Y=2.115
+ $X2=7.495 $Y2=2.815
r265 80 160 0.89609 $w=3.3e-07 $l=8.5e-08 $layer=LI1_cond $X=7.495 $Y=3.245
+ $X2=7.495 $Y2=3.33
r266 80 85 15.0167 $w=3.28e-07 $l=4.3e-07 $layer=LI1_cond $X=7.495 $Y=3.245
+ $X2=7.495 $Y2=2.815
r267 76 79 24.4458 $w=3.28e-07 $l=7e-07 $layer=LI1_cond $X=6.595 $Y=2.115
+ $X2=6.595 $Y2=2.815
r268 74 157 0.89609 $w=3.3e-07 $l=8.5e-08 $layer=LI1_cond $X=6.595 $Y=3.245
+ $X2=6.595 $Y2=3.33
r269 74 79 15.0167 $w=3.28e-07 $l=4.3e-07 $layer=LI1_cond $X=6.595 $Y=3.245
+ $X2=6.595 $Y2=2.815
r270 73 111 8.61065 $w=1.7e-07 $l=1.65e-07 $layer=LI1_cond $X=5.86 $Y=3.33
+ $X2=5.695 $Y2=3.33
r271 72 157 8.61065 $w=1.7e-07 $l=1.65e-07 $layer=LI1_cond $X=6.43 $Y=3.33
+ $X2=6.595 $Y2=3.33
r272 72 73 37.1872 $w=1.68e-07 $l=5.7e-07 $layer=LI1_cond $X=6.43 $Y=3.33
+ $X2=5.86 $Y2=3.33
r273 68 71 24.4458 $w=3.28e-07 $l=7e-07 $layer=LI1_cond $X=5.695 $Y=2.115
+ $X2=5.695 $Y2=2.815
r274 66 111 0.89609 $w=3.3e-07 $l=8.5e-08 $layer=LI1_cond $X=5.695 $Y=3.245
+ $X2=5.695 $Y2=3.33
r275 66 71 15.0167 $w=3.28e-07 $l=4.3e-07 $layer=LI1_cond $X=5.695 $Y=3.245
+ $X2=5.695 $Y2=2.815
r276 62 65 24.4458 $w=3.28e-07 $l=7e-07 $layer=LI1_cond $X=4.795 $Y=2.115
+ $X2=4.795 $Y2=2.815
r277 60 109 0.89609 $w=3.3e-07 $l=8.5e-08 $layer=LI1_cond $X=4.795 $Y=3.245
+ $X2=4.795 $Y2=3.33
r278 60 65 15.0167 $w=3.28e-07 $l=4.3e-07 $layer=LI1_cond $X=4.795 $Y=3.245
+ $X2=4.795 $Y2=2.815
r279 56 59 24.4458 $w=3.28e-07 $l=7e-07 $layer=LI1_cond $X=3.895 $Y=2.115
+ $X2=3.895 $Y2=2.815
r280 54 106 0.89609 $w=3.3e-07 $l=8.5e-08 $layer=LI1_cond $X=3.895 $Y=3.245
+ $X2=3.895 $Y2=3.33
r281 54 59 15.0167 $w=3.28e-07 $l=4.3e-07 $layer=LI1_cond $X=3.895 $Y=3.245
+ $X2=3.895 $Y2=2.815
r282 50 53 24.4458 $w=3.28e-07 $l=7e-07 $layer=LI1_cond $X=2.995 $Y=2.115
+ $X2=2.995 $Y2=2.815
r283 48 103 0.89609 $w=3.3e-07 $l=8.5e-08 $layer=LI1_cond $X=2.995 $Y=3.245
+ $X2=2.995 $Y2=3.33
r284 48 53 15.0167 $w=3.28e-07 $l=4.3e-07 $layer=LI1_cond $X=2.995 $Y=3.245
+ $X2=2.995 $Y2=2.815
r285 44 154 0.00168595 $w=2.5e-07 $l=8.5e-08 $layer=LI1_cond $X=2.125 $Y=3.245
+ $X2=2.125 $Y2=3.33
r286 44 46 36.4172 $w=2.48e-07 $l=7.9e-07 $layer=LI1_cond $X=2.125 $Y=3.245
+ $X2=2.125 $Y2=2.455
r287 40 100 1.34256 $w=1.7e-07 $l=8.5e-08 $layer=LI1_cond $X=1.185 $Y=3.245
+ $X2=1.185 $Y2=3.33
r288 40 42 51.5401 $w=1.68e-07 $l=7.9e-07 $layer=LI1_cond $X=1.185 $Y=3.245
+ $X2=1.185 $Y2=2.455
r289 36 39 32.2684 $w=2.48e-07 $l=7e-07 $layer=LI1_cond $X=0.245 $Y=2.115
+ $X2=0.245 $Y2=2.815
r290 34 151 3.13866 $w=2.5e-07 $l=1.11018e-07 $layer=LI1_cond $X=0.245 $Y=3.245
+ $X2=0.185 $Y2=3.33
r291 34 39 19.822 $w=2.48e-07 $l=4.3e-07 $layer=LI1_cond $X=0.245 $Y=3.245
+ $X2=0.245 $Y2=2.815
r292 11 97 400 $w=1.7e-07 $l=1.04031e-06 $layer=licon1_PDIFF $count=1 $X=9.18
+ $Y=1.84 $X2=9.315 $Y2=2.815
r293 11 94 400 $w=1.7e-07 $l=3.35783e-07 $layer=licon1_PDIFF $count=1 $X=9.18
+ $Y=1.84 $X2=9.315 $Y2=2.115
r294 10 91 400 $w=1.7e-07 $l=1.04031e-06 $layer=licon1_PDIFF $count=1 $X=8.26
+ $Y=1.84 $X2=8.395 $Y2=2.815
r295 10 88 400 $w=1.7e-07 $l=3.35783e-07 $layer=licon1_PDIFF $count=1 $X=8.26
+ $Y=1.84 $X2=8.395 $Y2=2.115
r296 9 85 400 $w=1.7e-07 $l=1.04031e-06 $layer=licon1_PDIFF $count=1 $X=7.36
+ $Y=1.84 $X2=7.495 $Y2=2.815
r297 9 82 400 $w=1.7e-07 $l=3.35783e-07 $layer=licon1_PDIFF $count=1 $X=7.36
+ $Y=1.84 $X2=7.495 $Y2=2.115
r298 8 79 400 $w=1.7e-07 $l=1.04031e-06 $layer=licon1_PDIFF $count=1 $X=6.46
+ $Y=1.84 $X2=6.595 $Y2=2.815
r299 8 76 400 $w=1.7e-07 $l=3.35783e-07 $layer=licon1_PDIFF $count=1 $X=6.46
+ $Y=1.84 $X2=6.595 $Y2=2.115
r300 7 71 400 $w=1.7e-07 $l=1.04031e-06 $layer=licon1_PDIFF $count=1 $X=5.56
+ $Y=1.84 $X2=5.695 $Y2=2.815
r301 7 68 400 $w=1.7e-07 $l=3.35783e-07 $layer=licon1_PDIFF $count=1 $X=5.56
+ $Y=1.84 $X2=5.695 $Y2=2.115
r302 6 65 400 $w=1.7e-07 $l=1.04031e-06 $layer=licon1_PDIFF $count=1 $X=4.66
+ $Y=1.84 $X2=4.795 $Y2=2.815
r303 6 62 400 $w=1.7e-07 $l=3.35783e-07 $layer=licon1_PDIFF $count=1 $X=4.66
+ $Y=1.84 $X2=4.795 $Y2=2.115
r304 5 59 400 $w=1.7e-07 $l=1.04031e-06 $layer=licon1_PDIFF $count=1 $X=3.76
+ $Y=1.84 $X2=3.895 $Y2=2.815
r305 5 56 400 $w=1.7e-07 $l=3.35783e-07 $layer=licon1_PDIFF $count=1 $X=3.76
+ $Y=1.84 $X2=3.895 $Y2=2.115
r306 4 53 400 $w=1.7e-07 $l=1.04031e-06 $layer=licon1_PDIFF $count=1 $X=2.86
+ $Y=1.84 $X2=2.995 $Y2=2.815