* File: sky130_fd_sc_ms__o221ai_4.pex.spice
* Created: Wed Sep  2 12:23:22 2020
* Program "Calibre xRC"
* Version "v2018.4_34.26"
* Nominal Temperature: 27C
* Circuit Temperature: 27C
* 
.subckt PM_SKY130_FD_SC_MS__O221AI_4%C1 3 7 11 15 19 23 27 31 33 34 35 48 51
c84 31 0 1.08677e-19 $X=1.965 $Y=2.4
r85 50 51 46.1656 $w=3.08e-07 $l=2.95e-07 $layer=POLY_cond $X=1.49 $Y=1.515
+ $X2=1.785 $Y2=1.515
r86 49 50 21.1266 $w=3.08e-07 $l=1.35e-07 $layer=POLY_cond $X=1.355 $Y=1.515
+ $X2=1.49 $Y2=1.515
r87 47 49 17.9968 $w=3.08e-07 $l=1.15e-07 $layer=POLY_cond $X=1.24 $Y=1.515
+ $X2=1.355 $Y2=1.515
r88 47 48 145.28 $w=1.7e-07 $l=1.7e-07 $layer=licon1_POLY $count=1 $X=1.24
+ $Y=1.515 $X2=1.24 $Y2=1.515
r89 45 47 44.6007 $w=3.08e-07 $l=2.85e-07 $layer=POLY_cond $X=0.955 $Y=1.515
+ $X2=1.24 $Y2=1.515
r90 44 45 4.69481 $w=3.08e-07 $l=3e-08 $layer=POLY_cond $X=0.925 $Y=1.515
+ $X2=0.955 $Y2=1.515
r91 42 44 3.91234 $w=3.08e-07 $l=2.5e-08 $layer=POLY_cond $X=0.9 $Y=1.515
+ $X2=0.925 $Y2=1.515
r92 42 43 72.64 $w=1.7e-07 $l=3.4e-07 $layer=licon1_POLY $count=2 $X=0.9
+ $Y=1.515 $X2=0.9 $Y2=1.515
r93 40 42 61.8149 $w=3.08e-07 $l=3.95e-07 $layer=POLY_cond $X=0.505 $Y=1.515
+ $X2=0.9 $Y2=1.515
r94 39 40 1.56494 $w=3.08e-07 $l=1e-08 $layer=POLY_cond $X=0.495 $Y=1.515
+ $X2=0.505 $Y2=1.515
r95 35 48 1.07204 $w=4.28e-07 $l=4e-08 $layer=LI1_cond $X=1.2 $Y=1.565 $X2=1.24
+ $Y2=1.565
r96 35 43 8.0403 $w=4.28e-07 $l=3e-07 $layer=LI1_cond $X=1.2 $Y=1.565 $X2=0.9
+ $Y2=1.565
r97 34 43 4.82418 $w=4.28e-07 $l=1.8e-07 $layer=LI1_cond $X=0.72 $Y=1.565
+ $X2=0.9 $Y2=1.565
r98 33 34 12.8645 $w=4.28e-07 $l=4.8e-07 $layer=LI1_cond $X=0.24 $Y=1.565
+ $X2=0.72 $Y2=1.565
r99 29 51 28.1688 $w=3.08e-07 $l=2.49199e-07 $layer=POLY_cond $X=1.965 $Y=1.68
+ $X2=1.785 $Y2=1.515
r100 29 31 279.871 $w=1.8e-07 $l=7.2e-07 $layer=POLY_cond $X=1.965 $Y=1.68
+ $X2=1.965 $Y2=2.4
r101 25 51 19.5884 $w=1.5e-07 $l=1.65e-07 $layer=POLY_cond $X=1.785 $Y=1.35
+ $X2=1.785 $Y2=1.515
r102 25 27 287.149 $w=1.5e-07 $l=5.6e-07 $layer=POLY_cond $X=1.785 $Y=1.35
+ $X2=1.785 $Y2=0.79
r103 21 50 15.3289 $w=1.8e-07 $l=1.65e-07 $layer=POLY_cond $X=1.49 $Y=1.68
+ $X2=1.49 $Y2=1.515
r104 21 23 279.871 $w=1.8e-07 $l=7.2e-07 $layer=POLY_cond $X=1.49 $Y=1.68
+ $X2=1.49 $Y2=2.4
r105 17 49 19.5884 $w=1.5e-07 $l=1.65e-07 $layer=POLY_cond $X=1.355 $Y=1.35
+ $X2=1.355 $Y2=1.515
r106 17 19 287.149 $w=1.5e-07 $l=5.6e-07 $layer=POLY_cond $X=1.355 $Y=1.35
+ $X2=1.355 $Y2=0.79
r107 13 45 15.3289 $w=1.8e-07 $l=1.65e-07 $layer=POLY_cond $X=0.955 $Y=1.68
+ $X2=0.955 $Y2=1.515
r108 13 15 279.871 $w=1.8e-07 $l=7.2e-07 $layer=POLY_cond $X=0.955 $Y=1.68
+ $X2=0.955 $Y2=2.4
r109 9 44 19.5884 $w=1.5e-07 $l=1.65e-07 $layer=POLY_cond $X=0.925 $Y=1.35
+ $X2=0.925 $Y2=1.515
r110 9 11 287.149 $w=1.5e-07 $l=5.6e-07 $layer=POLY_cond $X=0.925 $Y=1.35
+ $X2=0.925 $Y2=0.79
r111 5 39 19.5884 $w=1.5e-07 $l=1.65e-07 $layer=POLY_cond $X=0.495 $Y=1.35
+ $X2=0.495 $Y2=1.515
r112 5 7 287.149 $w=1.5e-07 $l=5.6e-07 $layer=POLY_cond $X=0.495 $Y=1.35
+ $X2=0.495 $Y2=0.79
r113 1 40 15.3289 $w=1.8e-07 $l=1.65e-07 $layer=POLY_cond $X=0.505 $Y=1.68
+ $X2=0.505 $Y2=1.515
r114 1 3 279.871 $w=1.8e-07 $l=7.2e-07 $layer=POLY_cond $X=0.505 $Y=1.68
+ $X2=0.505 $Y2=2.4
.ends

.subckt PM_SKY130_FD_SC_MS__O221AI_4%B1 3 7 11 13 15 18 20 22 25 29 31 36 41 42
+ 50 53 54
c127 53 0 1.14201e-19 $X=5.835 $Y=1.515
c128 20 0 9.65396e-20 $X=3.635 $Y=1.185
c129 13 0 9.65396e-20 $X=3.205 $Y=1.185
r130 53 56 40.6903 $w=3.3e-07 $l=1.65e-07 $layer=POLY_cond $X=5.835 $Y=1.515
+ $X2=5.835 $Y2=1.68
r131 53 55 46.2115 $w=3.3e-07 $l=1.65e-07 $layer=POLY_cond $X=5.835 $Y=1.515
+ $X2=5.835 $Y2=1.35
r132 53 54 145.28 $w=1.7e-07 $l=1.7e-07 $layer=licon1_POLY $count=1 $X=5.835
+ $Y=1.515 $X2=5.835 $Y2=1.515
r133 47 48 38.7202 $w=3.61e-07 $l=2.9e-07 $layer=POLY_cond $X=2.915 $Y=1.432
+ $X2=3.205 $Y2=1.432
r134 42 54 3.01532 $w=5.93e-07 $l=1.5e-07 $layer=LI1_cond $X=5.702 $Y=1.665
+ $X2=5.702 $Y2=1.515
r135 40 50 10.0139 $w=3.61e-07 $l=7.5e-08 $layer=POLY_cond $X=3.39 $Y=1.432
+ $X2=3.465 $Y2=1.432
r136 40 48 24.7008 $w=3.61e-07 $l=1.85e-07 $layer=POLY_cond $X=3.39 $Y=1.432
+ $X2=3.205 $Y2=1.432
r137 39 41 9.70437 $w=5.28e-07 $l=1.65e-07 $layer=LI1_cond $X=3.39 $Y=1.615
+ $X2=3.555 $Y2=1.615
r138 39 40 72.64 $w=1.7e-07 $l=3.4e-07 $layer=licon1_POLY $count=2 $X=3.39
+ $Y=1.515 $X2=3.39 $Y2=1.515
r139 36 42 2.61328 $w=5.93e-07 $l=1.3e-07 $layer=LI1_cond $X=5.702 $Y=1.795
+ $X2=5.702 $Y2=1.665
r140 36 41 120.695 $w=1.68e-07 $l=1.85e-06 $layer=LI1_cond $X=5.405 $Y=1.795
+ $X2=3.555 $Y2=1.795
r141 34 44 32.7119 $w=3.61e-07 $l=2.45e-07 $layer=POLY_cond $X=2.71 $Y=1.432
+ $X2=2.465 $Y2=1.432
r142 33 34 145.28 $w=1.7e-07 $l=1.7e-07 $layer=licon1_POLY $count=1 $X=2.71
+ $Y=1.515 $X2=2.71 $Y2=1.515
r143 31 39 2.25675 $w=5.28e-07 $l=1e-07 $layer=LI1_cond $X=3.29 $Y=1.615
+ $X2=3.39 $Y2=1.615
r144 31 33 13.0892 $w=5.28e-07 $l=5.8e-07 $layer=LI1_cond $X=3.29 $Y=1.615
+ $X2=2.71 $Y2=1.615
r145 29 56 279.871 $w=1.8e-07 $l=7.2e-07 $layer=POLY_cond $X=5.815 $Y=2.4
+ $X2=5.815 $Y2=1.68
r146 25 55 312.787 $w=1.5e-07 $l=6.1e-07 $layer=POLY_cond $X=5.785 $Y=0.74
+ $X2=5.785 $Y2=1.35
r147 20 50 22.6981 $w=3.61e-07 $l=3.20935e-07 $layer=POLY_cond $X=3.635 $Y=1.185
+ $X2=3.465 $Y2=1.432
r148 20 22 142.993 $w=1.5e-07 $l=4.45e-07 $layer=POLY_cond $X=3.635 $Y=1.185
+ $X2=3.635 $Y2=0.74
r149 16 50 19.0337 $w=1.8e-07 $l=2.48e-07 $layer=POLY_cond $X=3.465 $Y=1.68
+ $X2=3.465 $Y2=1.432
r150 16 18 279.871 $w=1.8e-07 $l=7.2e-07 $layer=POLY_cond $X=3.465 $Y=1.68
+ $X2=3.465 $Y2=2.4
r151 13 48 23.3725 $w=1.5e-07 $l=2.47e-07 $layer=POLY_cond $X=3.205 $Y=1.185
+ $X2=3.205 $Y2=1.432
r152 13 15 142.993 $w=1.5e-07 $l=4.45e-07 $layer=POLY_cond $X=3.205 $Y=1.185
+ $X2=3.205 $Y2=0.74
r153 9 47 19.0337 $w=1.8e-07 $l=2.48e-07 $layer=POLY_cond $X=2.915 $Y=1.68
+ $X2=2.915 $Y2=1.432
r154 9 11 279.871 $w=1.8e-07 $l=7.2e-07 $layer=POLY_cond $X=2.915 $Y=1.68
+ $X2=2.915 $Y2=2.4
r155 5 47 18.6925 $w=3.61e-07 $l=1.4e-07 $layer=POLY_cond $X=2.775 $Y=1.432
+ $X2=2.915 $Y2=1.432
r156 5 34 8.67867 $w=3.61e-07 $l=6.5e-08 $layer=POLY_cond $X=2.775 $Y=1.432
+ $X2=2.71 $Y2=1.432
r157 5 7 312.787 $w=1.5e-07 $l=6.1e-07 $layer=POLY_cond $X=2.775 $Y=1.35
+ $X2=2.775 $Y2=0.74
r158 1 44 19.0337 $w=1.8e-07 $l=2.48e-07 $layer=POLY_cond $X=2.465 $Y=1.68
+ $X2=2.465 $Y2=1.432
r159 1 3 279.871 $w=1.8e-07 $l=7.2e-07 $layer=POLY_cond $X=2.465 $Y=1.68
+ $X2=2.465 $Y2=2.4
.ends

.subckt PM_SKY130_FD_SC_MS__O221AI_4%B2 1 3 4 6 7 9 10 12 15 17 19 20 22 24 26
+ 27 28
c84 28 0 1.14201e-19 $X=5.04 $Y=1.295
c85 17 0 1.90514e-19 $X=4.925 $Y=1.22
c86 4 0 4.22428e-20 $X=4.065 $Y=1.22
r87 41 42 96.8533 $w=1.7e-07 $l=2.55e-07 $layer=licon1_POLY $count=1 $X=5.03
+ $Y=1.385 $X2=5.03 $Y2=1.385
r88 39 41 13.9807 $w=3.62e-07 $l=1.05e-07 $layer=POLY_cond $X=4.925 $Y=1.472
+ $X2=5.03 $Y2=1.472
r89 36 37 17.3094 $w=3.62e-07 $l=1.3e-07 $layer=POLY_cond $X=4.365 $Y=1.472
+ $X2=4.495 $Y2=1.472
r90 34 36 1.99724 $w=3.62e-07 $l=1.5e-08 $layer=POLY_cond $X=4.35 $Y=1.472
+ $X2=4.365 $Y2=1.472
r91 34 35 96.8533 $w=1.7e-07 $l=2.55e-07 $layer=licon1_POLY $count=1 $X=4.35
+ $Y=1.385 $X2=4.35 $Y2=1.385
r92 32 34 37.9475 $w=3.62e-07 $l=2.85e-07 $layer=POLY_cond $X=4.065 $Y=1.472
+ $X2=4.35 $Y2=1.472
r93 28 42 0.320123 $w=3.58e-07 $l=1e-08 $layer=LI1_cond $X=5.04 $Y=1.36 $X2=5.03
+ $Y2=1.36
r94 27 42 15.0458 $w=3.58e-07 $l=4.7e-07 $layer=LI1_cond $X=4.56 $Y=1.36
+ $X2=5.03 $Y2=1.36
r95 27 35 6.72258 $w=3.58e-07 $l=2.1e-07 $layer=LI1_cond $X=4.56 $Y=1.36
+ $X2=4.35 $Y2=1.36
r96 24 44 23.4391 $w=1.5e-07 $l=2.52e-07 $layer=POLY_cond $X=5.355 $Y=1.22
+ $X2=5.355 $Y2=1.472
r97 24 26 154.24 $w=1.5e-07 $l=4.8e-07 $layer=POLY_cond $X=5.355 $Y=1.22
+ $X2=5.355 $Y2=0.74
r98 20 44 5.32597 $w=3.62e-07 $l=4e-08 $layer=POLY_cond $X=5.315 $Y=1.472
+ $X2=5.355 $Y2=1.472
r99 20 41 37.9475 $w=3.62e-07 $l=2.85e-07 $layer=POLY_cond $X=5.315 $Y=1.472
+ $X2=5.03 $Y2=1.472
r100 20 22 330.403 $w=1.8e-07 $l=8.5e-07 $layer=POLY_cond $X=5.315 $Y=1.55
+ $X2=5.315 $Y2=2.4
r101 17 39 23.4391 $w=1.5e-07 $l=2.52e-07 $layer=POLY_cond $X=4.925 $Y=1.22
+ $X2=4.925 $Y2=1.472
r102 17 19 154.24 $w=1.5e-07 $l=4.8e-07 $layer=POLY_cond $X=4.925 $Y=1.22
+ $X2=4.925 $Y2=0.74
r103 13 39 14.6464 $w=3.62e-07 $l=1.1e-07 $layer=POLY_cond $X=4.815 $Y=1.472
+ $X2=4.925 $Y2=1.472
r104 13 37 42.6077 $w=3.62e-07 $l=3.2e-07 $layer=POLY_cond $X=4.815 $Y=1.472
+ $X2=4.495 $Y2=1.472
r105 13 15 330.403 $w=1.8e-07 $l=8.5e-07 $layer=POLY_cond $X=4.815 $Y=1.55
+ $X2=4.815 $Y2=2.4
r106 10 37 23.4391 $w=1.5e-07 $l=2.52e-07 $layer=POLY_cond $X=4.495 $Y=1.22
+ $X2=4.495 $Y2=1.472
r107 10 12 154.24 $w=1.5e-07 $l=4.8e-07 $layer=POLY_cond $X=4.495 $Y=1.22
+ $X2=4.495 $Y2=0.74
r108 7 36 19.0988 $w=1.8e-07 $l=2.53e-07 $layer=POLY_cond $X=4.365 $Y=1.725
+ $X2=4.365 $Y2=1.472
r109 7 9 180.75 $w=1.8e-07 $l=6.75e-07 $layer=POLY_cond $X=4.365 $Y=1.725
+ $X2=4.365 $Y2=2.4
r110 4 32 23.4391 $w=1.5e-07 $l=2.52e-07 $layer=POLY_cond $X=4.065 $Y=1.22
+ $X2=4.065 $Y2=1.472
r111 4 6 154.24 $w=1.5e-07 $l=4.8e-07 $layer=POLY_cond $X=4.065 $Y=1.22
+ $X2=4.065 $Y2=0.74
r112 1 32 19.9724 $w=3.62e-07 $l=3.1931e-07 $layer=POLY_cond $X=3.915 $Y=1.725
+ $X2=4.065 $Y2=1.472
r113 1 3 180.75 $w=1.8e-07 $l=6.75e-07 $layer=POLY_cond $X=3.915 $Y=1.725
+ $X2=3.915 $Y2=2.4
.ends

.subckt PM_SKY130_FD_SC_MS__O221AI_4%A1 3 7 11 15 19 23 27 31 34 38 39 40 41 42
+ 63 77 79 80
c122 80 0 7.74058e-20 $X=8.455 $Y=1.435
c123 63 0 1.46183e-19 $X=9.585 $Y=1.425
c124 38 0 1.7189e-19 $X=6.375 $Y=1.425
c125 3 0 1.43357e-20 $X=6.285 $Y=0.74
r126 79 80 1.70704 $w=6.88e-07 $l=5.5e-08 $layer=LI1_cond $X=8.4 $Y=1.435
+ $X2=8.455 $Y2=1.435
r127 62 63 2.62292 $w=3.3e-07 $l=1.5e-08 $layer=POLY_cond $X=9.57 $Y=1.425
+ $X2=9.585 $Y2=1.425
r128 60 62 25.3549 $w=3.3e-07 $l=1.45e-07 $layer=POLY_cond $X=9.425 $Y=1.425
+ $X2=9.57 $Y2=1.425
r129 60 61 96.8533 $w=1.7e-07 $l=2.55e-07 $layer=licon1_POLY $count=1 $X=9.425
+ $Y=1.425 $X2=9.425 $Y2=1.425
r130 58 60 47.2125 $w=3.3e-07 $l=2.7e-07 $layer=POLY_cond $X=9.155 $Y=1.425
+ $X2=9.425 $Y2=1.425
r131 57 58 6.12014 $w=3.3e-07 $l=3.5e-08 $layer=POLY_cond $X=9.12 $Y=1.425
+ $X2=9.155 $Y2=1.425
r132 55 57 65.573 $w=3.3e-07 $l=3.75e-07 $layer=POLY_cond $X=8.745 $Y=1.425
+ $X2=9.12 $Y2=1.425
r133 55 56 96.8533 $w=1.7e-07 $l=2.55e-07 $layer=licon1_POLY $count=1 $X=8.745
+ $Y=1.425 $X2=8.745 $Y2=1.425
r134 53 55 13.1146 $w=3.3e-07 $l=7.5e-08 $layer=POLY_cond $X=8.67 $Y=1.425
+ $X2=8.745 $Y2=1.425
r135 51 53 2.62292 $w=3.3e-07 $l=1.5e-08 $layer=POLY_cond $X=8.655 $Y=1.425
+ $X2=8.67 $Y2=1.425
r136 42 61 9.54563 $w=5.18e-07 $l=4.15e-07 $layer=LI1_cond $X=9.84 $Y=1.52
+ $X2=9.425 $Y2=1.52
r137 41 61 1.4951 $w=5.18e-07 $l=6.5e-08 $layer=LI1_cond $X=9.36 $Y=1.52
+ $X2=9.425 $Y2=1.52
r138 40 41 11.0407 $w=5.18e-07 $l=4.8e-07 $layer=LI1_cond $X=8.88 $Y=1.52
+ $X2=9.36 $Y2=1.52
r139 40 56 3.1052 $w=5.18e-07 $l=1.35e-07 $layer=LI1_cond $X=8.88 $Y=1.52
+ $X2=8.745 $Y2=1.52
r140 39 79 0.260017 $w=6.88e-07 $l=1.5e-08 $layer=LI1_cond $X=8.385 $Y=1.435
+ $X2=8.4 $Y2=1.435
r141 39 77 9.6141 $w=6.88e-07 $l=1e-07 $layer=LI1_cond $X=8.385 $Y=1.435
+ $X2=8.285 $Y2=1.435
r142 39 56 6.32541 $w=5.18e-07 $l=2.75e-07 $layer=LI1_cond $X=8.47 $Y=1.52
+ $X2=8.745 $Y2=1.52
r143 39 80 0.345023 $w=5.18e-07 $l=1.5e-08 $layer=LI1_cond $X=8.47 $Y=1.52
+ $X2=8.455 $Y2=1.52
r144 38 50 40.6903 $w=3.3e-07 $l=1.65e-07 $layer=POLY_cond $X=6.375 $Y=1.425
+ $X2=6.375 $Y2=1.59
r145 38 49 46.2115 $w=3.3e-07 $l=1.65e-07 $layer=POLY_cond $X=6.375 $Y=1.425
+ $X2=6.375 $Y2=1.26
r146 37 38 145.28 $w=1.7e-07 $l=1.7e-07 $layer=licon1_POLY $count=1 $X=6.375
+ $Y=1.425 $X2=6.375 $Y2=1.425
r147 34 37 10.2349 $w=2.98e-07 $l=3.29014e-07 $layer=LI1_cond $X=6.575 $Y=1.175
+ $X2=6.392 $Y2=1.425
r148 34 77 111.561 $w=1.68e-07 $l=1.71e-06 $layer=LI1_cond $X=6.575 $Y=1.175
+ $X2=8.285 $Y2=1.175
r149 29 63 21.2229 $w=1.5e-07 $l=1.65e-07 $layer=POLY_cond $X=9.585 $Y=1.26
+ $X2=9.585 $Y2=1.425
r150 29 31 266.638 $w=1.5e-07 $l=5.2e-07 $layer=POLY_cond $X=9.585 $Y=1.26
+ $X2=9.585 $Y2=0.74
r151 25 62 16.9318 $w=1.8e-07 $l=1.65e-07 $layer=POLY_cond $X=9.57 $Y=1.59
+ $X2=9.57 $Y2=1.425
r152 25 27 314.855 $w=1.8e-07 $l=8.1e-07 $layer=POLY_cond $X=9.57 $Y=1.59
+ $X2=9.57 $Y2=2.4
r153 21 58 21.2229 $w=1.5e-07 $l=1.65e-07 $layer=POLY_cond $X=9.155 $Y=1.26
+ $X2=9.155 $Y2=1.425
r154 21 23 266.638 $w=1.5e-07 $l=5.2e-07 $layer=POLY_cond $X=9.155 $Y=1.26
+ $X2=9.155 $Y2=0.74
r155 17 57 16.9318 $w=1.8e-07 $l=1.65e-07 $layer=POLY_cond $X=9.12 $Y=1.59
+ $X2=9.12 $Y2=1.425
r156 17 19 314.855 $w=1.8e-07 $l=8.1e-07 $layer=POLY_cond $X=9.12 $Y=1.59
+ $X2=9.12 $Y2=2.4
r157 13 53 16.9318 $w=1.8e-07 $l=1.65e-07 $layer=POLY_cond $X=8.67 $Y=1.59
+ $X2=8.67 $Y2=1.425
r158 13 15 314.855 $w=1.8e-07 $l=8.1e-07 $layer=POLY_cond $X=8.67 $Y=1.59
+ $X2=8.67 $Y2=2.4
r159 9 51 21.2229 $w=1.5e-07 $l=1.65e-07 $layer=POLY_cond $X=8.655 $Y=1.26
+ $X2=8.655 $Y2=1.425
r160 9 11 266.638 $w=1.5e-07 $l=5.2e-07 $layer=POLY_cond $X=8.655 $Y=1.26
+ $X2=8.655 $Y2=0.74
r161 7 50 314.855 $w=1.8e-07 $l=8.1e-07 $layer=POLY_cond $X=6.365 $Y=2.4
+ $X2=6.365 $Y2=1.59
r162 3 49 266.638 $w=1.5e-07 $l=5.2e-07 $layer=POLY_cond $X=6.285 $Y=0.74
+ $X2=6.285 $Y2=1.26
.ends

.subckt PM_SKY130_FD_SC_MS__O221AI_4%A2 3 7 11 15 19 23 27 31 33 34 35 51
c84 35 0 3.18073e-19 $X=7.92 $Y=1.665
c85 27 0 1.87992e-19 $X=8.22 $Y=2.4
c86 19 0 7.74058e-20 $X=7.77 $Y=2.4
r87 51 52 0.737003 $w=3.27e-07 $l=5e-09 $layer=POLY_cond $X=8.215 $Y=1.515
+ $X2=8.22 $Y2=1.515
r88 50 51 63.3823 $w=3.27e-07 $l=4.3e-07 $layer=POLY_cond $X=7.785 $Y=1.515
+ $X2=8.215 $Y2=1.515
r89 49 50 2.21101 $w=3.27e-07 $l=1.5e-08 $layer=POLY_cond $X=7.77 $Y=1.515
+ $X2=7.785 $Y2=1.515
r90 47 49 11.792 $w=3.27e-07 $l=8e-08 $layer=POLY_cond $X=7.69 $Y=1.515 $X2=7.77
+ $Y2=1.515
r91 47 48 72.64 $w=1.7e-07 $l=3.4e-07 $layer=licon1_POLY $count=2 $X=7.69
+ $Y=1.515 $X2=7.69 $Y2=1.515
r92 45 47 54.5382 $w=3.27e-07 $l=3.7e-07 $layer=POLY_cond $X=7.32 $Y=1.515
+ $X2=7.69 $Y2=1.515
r93 44 45 5.15902 $w=3.27e-07 $l=3.5e-08 $layer=POLY_cond $X=7.285 $Y=1.515
+ $X2=7.32 $Y2=1.515
r94 42 44 40.5352 $w=3.27e-07 $l=2.75e-07 $layer=POLY_cond $X=7.01 $Y=1.515
+ $X2=7.285 $Y2=1.515
r95 42 43 145.28 $w=1.7e-07 $l=1.7e-07 $layer=licon1_POLY $count=1 $X=7.01
+ $Y=1.515 $X2=7.01 $Y2=1.515
r96 40 42 20.6361 $w=3.27e-07 $l=1.4e-07 $layer=POLY_cond $X=6.87 $Y=1.515
+ $X2=7.01 $Y2=1.515
r97 39 40 2.21101 $w=3.27e-07 $l=1.5e-08 $layer=POLY_cond $X=6.855 $Y=1.515
+ $X2=6.87 $Y2=1.515
r98 35 48 7.5732 $w=3.48e-07 $l=2.3e-07 $layer=LI1_cond $X=7.92 $Y=1.605
+ $X2=7.69 $Y2=1.605
r99 34 48 8.23174 $w=3.48e-07 $l=2.5e-07 $layer=LI1_cond $X=7.44 $Y=1.605
+ $X2=7.69 $Y2=1.605
r100 34 43 14.1586 $w=3.48e-07 $l=4.3e-07 $layer=LI1_cond $X=7.44 $Y=1.605
+ $X2=7.01 $Y2=1.605
r101 33 43 1.64635 $w=3.48e-07 $l=5e-08 $layer=LI1_cond $X=6.96 $Y=1.605
+ $X2=7.01 $Y2=1.605
r102 29 51 21.0057 $w=1.5e-07 $l=1.65e-07 $layer=POLY_cond $X=8.215 $Y=1.35
+ $X2=8.215 $Y2=1.515
r103 29 31 312.787 $w=1.5e-07 $l=6.1e-07 $layer=POLY_cond $X=8.215 $Y=1.35
+ $X2=8.215 $Y2=0.74
r104 25 52 16.7191 $w=1.8e-07 $l=1.65e-07 $layer=POLY_cond $X=8.22 $Y=1.68
+ $X2=8.22 $Y2=1.515
r105 25 27 279.871 $w=1.8e-07 $l=7.2e-07 $layer=POLY_cond $X=8.22 $Y=1.68
+ $X2=8.22 $Y2=2.4
r106 21 50 21.0057 $w=1.5e-07 $l=1.65e-07 $layer=POLY_cond $X=7.785 $Y=1.35
+ $X2=7.785 $Y2=1.515
r107 21 23 312.787 $w=1.5e-07 $l=6.1e-07 $layer=POLY_cond $X=7.785 $Y=1.35
+ $X2=7.785 $Y2=0.74
r108 17 49 16.7191 $w=1.8e-07 $l=1.65e-07 $layer=POLY_cond $X=7.77 $Y=1.68
+ $X2=7.77 $Y2=1.515
r109 17 19 279.871 $w=1.8e-07 $l=7.2e-07 $layer=POLY_cond $X=7.77 $Y=1.68
+ $X2=7.77 $Y2=2.4
r110 13 45 16.7191 $w=1.8e-07 $l=1.65e-07 $layer=POLY_cond $X=7.32 $Y=1.68
+ $X2=7.32 $Y2=1.515
r111 13 15 279.871 $w=1.8e-07 $l=7.2e-07 $layer=POLY_cond $X=7.32 $Y=1.68
+ $X2=7.32 $Y2=2.4
r112 9 44 21.0057 $w=1.5e-07 $l=1.65e-07 $layer=POLY_cond $X=7.285 $Y=1.35
+ $X2=7.285 $Y2=1.515
r113 9 11 312.787 $w=1.5e-07 $l=6.1e-07 $layer=POLY_cond $X=7.285 $Y=1.35
+ $X2=7.285 $Y2=0.74
r114 5 40 16.7191 $w=1.8e-07 $l=1.65e-07 $layer=POLY_cond $X=6.87 $Y=1.68
+ $X2=6.87 $Y2=1.515
r115 5 7 279.871 $w=1.8e-07 $l=7.2e-07 $layer=POLY_cond $X=6.87 $Y=1.68 $X2=6.87
+ $Y2=2.4
r116 1 39 21.0057 $w=1.5e-07 $l=1.65e-07 $layer=POLY_cond $X=6.855 $Y=1.35
+ $X2=6.855 $Y2=1.515
r117 1 3 312.787 $w=1.5e-07 $l=6.1e-07 $layer=POLY_cond $X=6.855 $Y=1.35
+ $X2=6.855 $Y2=0.74
.ends

.subckt PM_SKY130_FD_SC_MS__O221AI_4%VPWR 1 2 3 4 5 6 7 22 24 30 34 38 42 46 48
+ 50 54 56 61 66 71 76 84 93 96 99 102 105 109
c128 46 0 1.87992e-19 $X=8.895 $Y=2.455
r129 108 109 9.3 $w=1.7e-07 $l=1.7e-07 $layer=mcon $count=1 $X=9.84 $Y=3.33
+ $X2=9.84 $Y2=3.33
r130 105 106 9.3 $w=1.7e-07 $l=1.7e-07 $layer=mcon $count=1 $X=8.88 $Y=3.33
+ $X2=8.88 $Y2=3.33
r131 102 103 3.1 $w=1.7e-07 $l=5.1e-07 $layer=mcon $count=3 $X=6 $Y=3.33 $X2=6
+ $Y2=3.33
r132 99 100 9.3 $w=1.7e-07 $l=1.7e-07 $layer=mcon $count=1 $X=3.12 $Y=3.33
+ $X2=3.12 $Y2=3.33
r133 96 97 9.3 $w=1.7e-07 $l=1.7e-07 $layer=mcon $count=1 $X=2.16 $Y=3.33
+ $X2=2.16 $Y2=3.33
r134 93 94 9.3 $w=1.7e-07 $l=1.7e-07 $layer=mcon $count=1 $X=1.2 $Y=3.33 $X2=1.2
+ $Y2=3.33
r135 90 91 9.3 $w=1.7e-07 $l=1.7e-07 $layer=mcon $count=1 $X=0.24 $Y=3.33
+ $X2=0.24 $Y2=3.33
r136 88 109 0.133793 $w=4.9e-07 $l=4.8e-07 $layer=MET1_cond $X=9.36 $Y=3.33
+ $X2=9.84 $Y2=3.33
r137 88 106 0.133793 $w=4.9e-07 $l=4.8e-07 $layer=MET1_cond $X=9.36 $Y=3.33
+ $X2=8.88 $Y2=3.33
r138 87 88 9.3 $w=1.7e-07 $l=1.7e-07 $layer=mcon $count=1 $X=9.36 $Y=3.33
+ $X2=9.36 $Y2=3.33
r139 85 105 7.02821 $w=1.7e-07 $l=1.25e-07 $layer=LI1_cond $X=8.98 $Y=3.33
+ $X2=8.855 $Y2=3.33
r140 85 87 24.7914 $w=1.68e-07 $l=3.8e-07 $layer=LI1_cond $X=8.98 $Y=3.33
+ $X2=9.36 $Y2=3.33
r141 84 108 4.0045 $w=1.7e-07 $l=1.85e-07 $layer=LI1_cond $X=9.71 $Y=3.33
+ $X2=9.895 $Y2=3.33
r142 84 87 22.8342 $w=1.68e-07 $l=3.5e-07 $layer=LI1_cond $X=9.71 $Y=3.33
+ $X2=9.36 $Y2=3.33
r143 83 106 0.133793 $w=4.9e-07 $l=4.8e-07 $layer=MET1_cond $X=8.4 $Y=3.33
+ $X2=8.88 $Y2=3.33
r144 82 83 3.72 $w=1.7e-07 $l=4.25e-07 $layer=mcon $count=2 $X=8.4 $Y=3.33
+ $X2=8.4 $Y2=3.33
r145 80 83 0.535171 $w=4.9e-07 $l=1.92e-06 $layer=MET1_cond $X=6.48 $Y=3.33
+ $X2=8.4 $Y2=3.33
r146 80 103 0.133793 $w=4.9e-07 $l=4.8e-07 $layer=MET1_cond $X=6.48 $Y=3.33
+ $X2=6 $Y2=3.33
r147 79 82 125.262 $w=1.68e-07 $l=1.92e-06 $layer=LI1_cond $X=6.48 $Y=3.33
+ $X2=8.4 $Y2=3.33
r148 79 80 3.72 $w=1.7e-07 $l=4.25e-07 $layer=mcon $count=2 $X=6.48 $Y=3.33
+ $X2=6.48 $Y2=3.33
r149 77 102 8.61065 $w=1.7e-07 $l=1.65e-07 $layer=LI1_cond $X=6.255 $Y=3.33
+ $X2=6.09 $Y2=3.33
r150 77 79 14.6791 $w=1.68e-07 $l=2.25e-07 $layer=LI1_cond $X=6.255 $Y=3.33
+ $X2=6.48 $Y2=3.33
r151 76 105 7.02821 $w=1.7e-07 $l=1.25e-07 $layer=LI1_cond $X=8.73 $Y=3.33
+ $X2=8.855 $Y2=3.33
r152 76 82 21.5294 $w=1.68e-07 $l=3.3e-07 $layer=LI1_cond $X=8.73 $Y=3.33
+ $X2=8.4 $Y2=3.33
r153 75 100 0.133793 $w=4.9e-07 $l=4.8e-07 $layer=MET1_cond $X=3.6 $Y=3.33
+ $X2=3.12 $Y2=3.33
r154 74 75 3.1 $w=1.7e-07 $l=5.1e-07 $layer=mcon $count=3 $X=3.6 $Y=3.33 $X2=3.6
+ $Y2=3.33
r155 72 99 8.61065 $w=1.7e-07 $l=1.65e-07 $layer=LI1_cond $X=3.355 $Y=3.33
+ $X2=3.19 $Y2=3.33
r156 72 74 15.984 $w=1.68e-07 $l=2.45e-07 $layer=LI1_cond $X=3.355 $Y=3.33
+ $X2=3.6 $Y2=3.33
r157 71 102 8.61065 $w=1.7e-07 $l=1.65e-07 $layer=LI1_cond $X=5.925 $Y=3.33
+ $X2=6.09 $Y2=3.33
r158 71 74 151.684 $w=1.68e-07 $l=2.325e-06 $layer=LI1_cond $X=5.925 $Y=3.33
+ $X2=3.6 $Y2=3.33
r159 70 100 0.133793 $w=4.9e-07 $l=4.8e-07 $layer=MET1_cond $X=2.64 $Y=3.33
+ $X2=3.12 $Y2=3.33
r160 70 97 0.133793 $w=4.9e-07 $l=4.8e-07 $layer=MET1_cond $X=2.64 $Y=3.33
+ $X2=2.16 $Y2=3.33
r161 69 70 9.3 $w=1.7e-07 $l=1.7e-07 $layer=mcon $count=1 $X=2.64 $Y=3.33
+ $X2=2.64 $Y2=3.33
r162 67 96 8.61065 $w=1.7e-07 $l=1.65e-07 $layer=LI1_cond $X=2.355 $Y=3.33
+ $X2=2.19 $Y2=3.33
r163 67 69 18.5936 $w=1.68e-07 $l=2.85e-07 $layer=LI1_cond $X=2.355 $Y=3.33
+ $X2=2.64 $Y2=3.33
r164 66 99 8.61065 $w=1.7e-07 $l=1.65e-07 $layer=LI1_cond $X=3.025 $Y=3.33
+ $X2=3.19 $Y2=3.33
r165 66 69 25.1176 $w=1.68e-07 $l=3.85e-07 $layer=LI1_cond $X=3.025 $Y=3.33
+ $X2=2.64 $Y2=3.33
r166 65 97 0.133793 $w=4.9e-07 $l=4.8e-07 $layer=MET1_cond $X=1.68 $Y=3.33
+ $X2=2.16 $Y2=3.33
r167 65 94 0.133793 $w=4.9e-07 $l=4.8e-07 $layer=MET1_cond $X=1.68 $Y=3.33
+ $X2=1.2 $Y2=3.33
r168 64 65 9.3 $w=1.7e-07 $l=1.7e-07 $layer=mcon $count=1 $X=1.68 $Y=3.33
+ $X2=1.68 $Y2=3.33
r169 62 93 8.61065 $w=1.7e-07 $l=1.65e-07 $layer=LI1_cond $X=1.395 $Y=3.33
+ $X2=1.23 $Y2=3.33
r170 62 64 18.5936 $w=1.68e-07 $l=2.85e-07 $layer=LI1_cond $X=1.395 $Y=3.33
+ $X2=1.68 $Y2=3.33
r171 61 96 8.61065 $w=1.7e-07 $l=1.65e-07 $layer=LI1_cond $X=2.025 $Y=3.33
+ $X2=2.19 $Y2=3.33
r172 61 64 22.508 $w=1.68e-07 $l=3.45e-07 $layer=LI1_cond $X=2.025 $Y=3.33
+ $X2=1.68 $Y2=3.33
r173 60 94 0.133793 $w=4.9e-07 $l=4.8e-07 $layer=MET1_cond $X=0.72 $Y=3.33
+ $X2=1.2 $Y2=3.33
r174 60 91 0.133793 $w=4.9e-07 $l=4.8e-07 $layer=MET1_cond $X=0.72 $Y=3.33
+ $X2=0.24 $Y2=3.33
r175 59 60 9.3 $w=1.7e-07 $l=1.7e-07 $layer=mcon $count=1 $X=0.72 $Y=3.33
+ $X2=0.72 $Y2=3.33
r176 57 90 4.00981 $w=1.7e-07 $l=1.83e-07 $layer=LI1_cond $X=0.365 $Y=3.33
+ $X2=0.182 $Y2=3.33
r177 57 59 23.1604 $w=1.68e-07 $l=3.55e-07 $layer=LI1_cond $X=0.365 $Y=3.33
+ $X2=0.72 $Y2=3.33
r178 56 93 8.61065 $w=1.7e-07 $l=1.65e-07 $layer=LI1_cond $X=1.065 $Y=3.33
+ $X2=1.23 $Y2=3.33
r179 56 59 22.508 $w=1.68e-07 $l=3.45e-07 $layer=LI1_cond $X=1.065 $Y=3.33
+ $X2=0.72 $Y2=3.33
r180 54 103 0.267585 $w=4.9e-07 $l=9.6e-07 $layer=MET1_cond $X=5.04 $Y=3.33
+ $X2=6 $Y2=3.33
r181 54 75 0.401378 $w=4.9e-07 $l=1.44e-06 $layer=MET1_cond $X=5.04 $Y=3.33
+ $X2=3.6 $Y2=3.33
r182 50 53 32.2684 $w=2.48e-07 $l=7e-07 $layer=LI1_cond $X=9.835 $Y=2.115
+ $X2=9.835 $Y2=2.815
r183 48 108 3.13866 $w=2.5e-07 $l=1.11018e-07 $layer=LI1_cond $X=9.835 $Y=3.245
+ $X2=9.895 $Y2=3.33
r184 48 53 19.822 $w=2.48e-07 $l=4.3e-07 $layer=LI1_cond $X=9.835 $Y=3.245
+ $X2=9.835 $Y2=2.815
r185 44 105 0.00168595 $w=2.5e-07 $l=8.5e-08 $layer=LI1_cond $X=8.855 $Y=3.245
+ $X2=8.855 $Y2=3.33
r186 44 46 36.4172 $w=2.48e-07 $l=7.9e-07 $layer=LI1_cond $X=8.855 $Y=3.245
+ $X2=8.855 $Y2=2.455
r187 40 102 0.89609 $w=3.3e-07 $l=8.5e-08 $layer=LI1_cond $X=6.09 $Y=3.245
+ $X2=6.09 $Y2=3.33
r188 40 42 26.8903 $w=3.28e-07 $l=7.7e-07 $layer=LI1_cond $X=6.09 $Y=3.245
+ $X2=6.09 $Y2=2.475
r189 36 99 0.89609 $w=3.3e-07 $l=8.5e-08 $layer=LI1_cond $X=3.19 $Y=3.245
+ $X2=3.19 $Y2=3.33
r190 36 38 15.0167 $w=3.28e-07 $l=4.3e-07 $layer=LI1_cond $X=3.19 $Y=3.245
+ $X2=3.19 $Y2=2.815
r191 32 96 0.89609 $w=3.3e-07 $l=8.5e-08 $layer=LI1_cond $X=2.19 $Y=3.245
+ $X2=2.19 $Y2=3.33
r192 32 34 26.8903 $w=3.28e-07 $l=7.7e-07 $layer=LI1_cond $X=2.19 $Y=3.245
+ $X2=2.19 $Y2=2.475
r193 28 93 0.89609 $w=3.3e-07 $l=8.5e-08 $layer=LI1_cond $X=1.23 $Y=3.245
+ $X2=1.23 $Y2=3.33
r194 28 30 27.5888 $w=3.28e-07 $l=7.9e-07 $layer=LI1_cond $X=1.23 $Y=3.245
+ $X2=1.23 $Y2=2.455
r195 24 27 32.2684 $w=2.48e-07 $l=7e-07 $layer=LI1_cond $X=0.24 $Y=2.115
+ $X2=0.24 $Y2=2.815
r196 22 90 3.13335 $w=2.5e-07 $l=1.1025e-07 $layer=LI1_cond $X=0.24 $Y=3.245
+ $X2=0.182 $Y2=3.33
r197 22 27 19.822 $w=2.48e-07 $l=4.3e-07 $layer=LI1_cond $X=0.24 $Y=3.245
+ $X2=0.24 $Y2=2.815
r198 7 53 400 $w=1.7e-07 $l=1.04031e-06 $layer=licon1_PDIFF $count=1 $X=9.66
+ $Y=1.84 $X2=9.795 $Y2=2.815
r199 7 50 400 $w=1.7e-07 $l=3.35783e-07 $layer=licon1_PDIFF $count=1 $X=9.66
+ $Y=1.84 $X2=9.795 $Y2=2.115
r200 6 46 300 $w=1.7e-07 $l=6.79154e-07 $layer=licon1_PDIFF $count=2 $X=8.76
+ $Y=1.84 $X2=8.895 $Y2=2.455
r201 5 42 300 $w=1.7e-07 $l=7.21595e-07 $layer=licon1_PDIFF $count=2 $X=5.905
+ $Y=1.84 $X2=6.09 $Y2=2.475
r202 4 38 600 $w=1.7e-07 $l=1.06348e-06 $layer=licon1_PDIFF $count=1 $X=3.005
+ $Y=1.84 $X2=3.19 $Y2=2.815
r203 3 34 300 $w=1.7e-07 $l=6.9925e-07 $layer=licon1_PDIFF $count=2 $X=2.055
+ $Y=1.84 $X2=2.19 $Y2=2.475
r204 2 30 300 $w=1.7e-07 $l=7.01427e-07 $layer=licon1_PDIFF $count=2 $X=1.045
+ $Y=1.84 $X2=1.23 $Y2=2.455
r205 1 27 400 $w=1.7e-07 $l=1.04499e-06 $layer=licon1_PDIFF $count=1 $X=0.135
+ $Y=1.84 $X2=0.28 $Y2=2.815
r206 1 24 400 $w=1.7e-07 $l=3.39853e-07 $layer=licon1_PDIFF $count=1 $X=0.135
+ $Y=1.84 $X2=0.28 $Y2=2.115
.ends

.subckt PM_SKY130_FD_SC_MS__O221AI_4%Y 1 2 3 4 5 6 7 8 27 29 31 33 34 35 39 45
+ 47 51 53 57 59 61 67 69 70 74 76 78 79
r139 83 84 0.624041 $w=3.91e-07 $l=2e-08 $layer=LI1_cond $X=7.052 $Y=2.115
+ $X2=7.052 $Y2=2.135
r140 81 83 2.49616 $w=3.91e-07 $l=8e-08 $layer=LI1_cond $X=7.052 $Y=2.035
+ $X2=7.052 $Y2=2.115
r141 79 84 8.42455 $w=3.91e-07 $l=2.7e-07 $layer=LI1_cond $X=7.052 $Y=2.405
+ $X2=7.052 $Y2=2.135
r142 71 72 4.60977 $w=2.48e-07 $l=1e-07 $layer=LI1_cond $X=1.7 $Y=2.035 $X2=1.7
+ $Y2=2.135
r143 69 71 2.30489 $w=2.48e-07 $l=5e-08 $layer=LI1_cond $X=1.7 $Y=1.985 $X2=1.7
+ $Y2=2.035
r144 69 70 8.79328 $w=2.48e-07 $l=1.65e-07 $layer=LI1_cond $X=1.7 $Y=1.985
+ $X2=1.7 $Y2=1.82
r145 62 81 5.64031 $w=1.7e-07 $l=2.08e-07 $layer=LI1_cond $X=7.26 $Y=2.035
+ $X2=7.052 $Y2=2.035
r146 61 78 5.12568 $w=1.7e-07 $l=1.65e-07 $layer=LI1_cond $X=7.83 $Y=2.035
+ $X2=7.995 $Y2=2.035
r147 61 62 37.1872 $w=1.68e-07 $l=5.7e-07 $layer=LI1_cond $X=7.83 $Y=2.035
+ $X2=7.26 $Y2=2.035
r148 60 76 8.61065 $w=1.7e-07 $l=1.65e-07 $layer=LI1_cond $X=5.255 $Y=2.135
+ $X2=5.09 $Y2=2.135
r149 59 84 5.64031 $w=1.7e-07 $l=2.07e-07 $layer=LI1_cond $X=6.845 $Y=2.135
+ $X2=7.052 $Y2=2.135
r150 59 60 103.733 $w=1.68e-07 $l=1.59e-06 $layer=LI1_cond $X=6.845 $Y=2.135
+ $X2=5.255 $Y2=2.135
r151 55 76 0.89609 $w=3.3e-07 $l=8.5e-08 $layer=LI1_cond $X=5.09 $Y=2.22
+ $X2=5.09 $Y2=2.135
r152 55 57 12.2229 $w=3.28e-07 $l=3.5e-07 $layer=LI1_cond $X=5.09 $Y=2.22
+ $X2=5.09 $Y2=2.57
r153 54 74 5.16603 $w=1.7e-07 $l=8.5e-08 $layer=LI1_cond $X=4.225 $Y=2.135
+ $X2=4.14 $Y2=2.135
r154 53 76 8.61065 $w=1.7e-07 $l=1.65e-07 $layer=LI1_cond $X=4.925 $Y=2.135
+ $X2=5.09 $Y2=2.135
r155 53 54 45.6684 $w=1.68e-07 $l=7e-07 $layer=LI1_cond $X=4.925 $Y=2.135
+ $X2=4.225 $Y2=2.135
r156 49 74 1.34256 $w=1.7e-07 $l=8.5e-08 $layer=LI1_cond $X=4.14 $Y=2.22
+ $X2=4.14 $Y2=2.135
r157 49 51 22.8342 $w=1.68e-07 $l=3.5e-07 $layer=LI1_cond $X=4.14 $Y=2.22
+ $X2=4.14 $Y2=2.57
r158 48 72 2.99516 $w=1.7e-07 $l=1.25e-07 $layer=LI1_cond $X=1.825 $Y=2.135
+ $X2=1.7 $Y2=2.135
r159 47 74 5.16603 $w=1.7e-07 $l=8.5e-08 $layer=LI1_cond $X=4.055 $Y=2.135
+ $X2=4.14 $Y2=2.135
r160 47 48 145.487 $w=1.68e-07 $l=2.23e-06 $layer=LI1_cond $X=4.055 $Y=2.135
+ $X2=1.825 $Y2=2.135
r161 43 72 3.91831 $w=2.48e-07 $l=8.5e-08 $layer=LI1_cond $X=1.7 $Y=2.22 $X2=1.7
+ $Y2=2.135
r162 43 45 8.29759 $w=2.48e-07 $l=1.8e-07 $layer=LI1_cond $X=1.7 $Y=2.22 $X2=1.7
+ $Y2=2.4
r163 41 67 3.64284 $w=2.55e-07 $l=1.20208e-07 $layer=LI1_cond $X=1.66 $Y=1.18
+ $X2=1.575 $Y2=1.095
r164 41 70 41.754 $w=1.68e-07 $l=6.4e-07 $layer=LI1_cond $X=1.66 $Y=1.18
+ $X2=1.66 $Y2=1.82
r165 37 67 3.64284 $w=2.55e-07 $l=8.5e-08 $layer=LI1_cond $X=1.575 $Y=1.01
+ $X2=1.575 $Y2=1.095
r166 37 39 11.1855 $w=3.38e-07 $l=3.3e-07 $layer=LI1_cond $X=1.575 $Y=1.01
+ $X2=1.575 $Y2=0.68
r167 36 66 5.12568 $w=1.7e-07 $l=1.65e-07 $layer=LI1_cond $X=0.895 $Y=2.035
+ $X2=0.73 $Y2=2.035
r168 35 71 2.99516 $w=1.7e-07 $l=1.25e-07 $layer=LI1_cond $X=1.575 $Y=2.035
+ $X2=1.7 $Y2=2.035
r169 35 36 44.3636 $w=1.68e-07 $l=6.8e-07 $layer=LI1_cond $X=1.575 $Y=2.035
+ $X2=0.895 $Y2=2.035
r170 33 67 2.83584 $w=1.7e-07 $l=1.7e-07 $layer=LI1_cond $X=1.405 $Y=1.095
+ $X2=1.575 $Y2=1.095
r171 33 34 34.5775 $w=1.68e-07 $l=5.3e-07 $layer=LI1_cond $X=1.405 $Y=1.095
+ $X2=0.875 $Y2=1.095
r172 29 66 2.6405 $w=3.3e-07 $l=8.5e-08 $layer=LI1_cond $X=0.73 $Y=2.12 $X2=0.73
+ $Y2=2.035
r173 29 31 24.2711 $w=3.28e-07 $l=6.95e-07 $layer=LI1_cond $X=0.73 $Y=2.12
+ $X2=0.73 $Y2=2.815
r174 25 34 7.76618 $w=1.7e-07 $l=2.03101e-07 $layer=LI1_cond $X=0.71 $Y=1.01
+ $X2=0.875 $Y2=1.095
r175 25 27 11.5244 $w=3.28e-07 $l=3.3e-07 $layer=LI1_cond $X=0.71 $Y=1.01
+ $X2=0.71 $Y2=0.68
r176 8 78 300 $w=1.7e-07 $l=3.35783e-07 $layer=licon1_PDIFF $count=2 $X=7.86
+ $Y=1.84 $X2=7.995 $Y2=2.115
r177 7 83 300 $w=1.7e-07 $l=3.35783e-07 $layer=licon1_PDIFF $count=2 $X=6.96
+ $Y=1.84 $X2=7.095 $Y2=2.115
r178 6 76 600 $w=1.7e-07 $l=3.76298e-07 $layer=licon1_PDIFF $count=1 $X=4.905
+ $Y=1.84 $X2=5.09 $Y2=2.135
r179 6 57 600 $w=1.7e-07 $l=8.17282e-07 $layer=licon1_PDIFF $count=1 $X=4.905
+ $Y=1.84 $X2=5.09 $Y2=2.57
r180 5 74 600 $w=1.7e-07 $l=3.5616e-07 $layer=licon1_PDIFF $count=1 $X=4.005
+ $Y=1.84 $X2=4.14 $Y2=2.135
r181 5 51 600 $w=1.7e-07 $l=7.94638e-07 $layer=licon1_PDIFF $count=1 $X=4.005
+ $Y=1.84 $X2=4.14 $Y2=2.57
r182 4 69 600 $w=1.7e-07 $l=2.20907e-07 $layer=licon1_PDIFF $count=1 $X=1.58
+ $Y=1.84 $X2=1.74 $Y2=1.985
r183 4 45 300 $w=1.7e-07 $l=6.3498e-07 $layer=licon1_PDIFF $count=2 $X=1.58
+ $Y=1.84 $X2=1.74 $Y2=2.4
r184 3 66 400 $w=1.7e-07 $l=3.35783e-07 $layer=licon1_PDIFF $count=1 $X=0.595
+ $Y=1.84 $X2=0.73 $Y2=2.115
r185 3 31 400 $w=1.7e-07 $l=1.04031e-06 $layer=licon1_PDIFF $count=1 $X=0.595
+ $Y=1.84 $X2=0.73 $Y2=2.815
r186 2 39 91 $w=1.7e-07 $l=3.2249e-07 $layer=licon1_NDIFF $count=2 $X=1.43
+ $Y=0.42 $X2=1.57 $Y2=0.68
r187 1 27 91 $w=1.7e-07 $l=3.2249e-07 $layer=licon1_NDIFF $count=2 $X=0.57
+ $Y=0.42 $X2=0.71 $Y2=0.68
.ends

.subckt PM_SKY130_FD_SC_MS__O221AI_4%A_511_368# 1 2 3 4 15 17 18 19 20 23 25 29
+ 32 35
c64 32 0 1.08677e-19 $X=2.69 $Y=2.475
r65 27 29 15.0167 $w=3.28e-07 $l=4.3e-07 $layer=LI1_cond $X=5.59 $Y=2.905
+ $X2=5.59 $Y2=2.475
r66 26 35 8.61065 $w=1.7e-07 $l=1.65e-07 $layer=LI1_cond $X=4.755 $Y=2.99
+ $X2=4.59 $Y2=2.99
r67 25 27 7.76618 $w=1.7e-07 $l=2.03101e-07 $layer=LI1_cond $X=5.425 $Y=2.99
+ $X2=5.59 $Y2=2.905
r68 25 26 43.7112 $w=1.68e-07 $l=6.7e-07 $layer=LI1_cond $X=5.425 $Y=2.99
+ $X2=4.755 $Y2=2.99
r69 21 35 0.89609 $w=3.3e-07 $l=8.5e-08 $layer=LI1_cond $X=4.59 $Y=2.905
+ $X2=4.59 $Y2=2.99
r70 21 23 15.0167 $w=3.28e-07 $l=4.3e-07 $layer=LI1_cond $X=4.59 $Y=2.905
+ $X2=4.59 $Y2=2.475
r71 19 35 8.61065 $w=1.7e-07 $l=1.65e-07 $layer=LI1_cond $X=4.425 $Y=2.99
+ $X2=4.59 $Y2=2.99
r72 19 20 37.1872 $w=1.68e-07 $l=5.7e-07 $layer=LI1_cond $X=4.425 $Y=2.99
+ $X2=3.855 $Y2=2.99
r73 18 20 7.76618 $w=1.7e-07 $l=2.03101e-07 $layer=LI1_cond $X=3.69 $Y=2.905
+ $X2=3.855 $Y2=2.99
r74 17 34 2.6405 $w=3.3e-07 $l=8.5e-08 $layer=LI1_cond $X=3.69 $Y=2.56 $X2=3.69
+ $Y2=2.475