* File: sky130_fd_sc_ms__sedfxbp_1.pex.spice
* Created: Fri Aug 28 18:15:42 2020
* Program "Calibre xRC"
* Version "v2018.4_34.26"
* Nominal Temperature: 27C
* Circuit Temperature: 27C
* 
.subckt PM_SKY130_FD_SC_MS__SEDFXBP_1%D 2 5 9 11 12 13 17 18
r39 17 19 46.7569 $w=3.7e-07 $l=1.65e-07 $layer=POLY_cond $X=0.6 $Y=1.225
+ $X2=0.6 $Y2=1.06
r40 17 18 72.64 $w=1.7e-07 $l=3.4e-07 $layer=licon1_POLY $count=2 $X=0.62
+ $Y=1.225 $X2=0.62 $Y2=1.225
r41 12 13 11.2212 $w=3.78e-07 $l=3.7e-07 $layer=LI1_cond $X=0.645 $Y=1.295
+ $X2=0.645 $Y2=1.665
r42 12 18 2.12292 $w=3.78e-07 $l=7e-08 $layer=LI1_cond $X=0.645 $Y=1.295
+ $X2=0.645 $Y2=1.225
r43 9 19 205.106 $w=1.5e-07 $l=4e-07 $layer=POLY_cond $X=0.71 $Y=0.66 $X2=0.71
+ $Y2=1.06
r44 5 11 353.726 $w=1.8e-07 $l=9.1e-07 $layer=POLY_cond $X=0.505 $Y=2.64
+ $X2=0.505 $Y2=1.73
r45 2 11 44.1029 $w=3.7e-07 $l=1.85e-07 $layer=POLY_cond $X=0.6 $Y=1.545 $X2=0.6
+ $Y2=1.73
r46 1 17 3.11915 $w=3.7e-07 $l=2e-08 $layer=POLY_cond $X=0.6 $Y=1.245 $X2=0.6
+ $Y2=1.225
r47 1 2 46.7872 $w=3.7e-07 $l=3e-07 $layer=POLY_cond $X=0.6 $Y=1.245 $X2=0.6
+ $Y2=1.545
.ends

.subckt PM_SKY130_FD_SC_MS__SEDFXBP_1%A_161_394# 1 2 9 13 18 23 24 25 26 27 28
+ 31 35 37 41 42 44
c109 41 0 1.83709e-19 $X=2.5 $Y=1.69
r110 42 48 46.2115 $w=3.3e-07 $l=1.65e-07 $layer=POLY_cond $X=2.5 $Y=1.69
+ $X2=2.5 $Y2=1.525
r111 41 42 145.28 $w=1.7e-07 $l=1.7e-07 $layer=licon1_POLY $count=1 $X=2.5
+ $Y=1.69 $X2=2.5 $Y2=1.69
r112 39 41 9.07985 $w=3.28e-07 $l=2.6e-07 $layer=LI1_cond $X=2.5 $Y=1.95 $X2=2.5
+ $Y2=1.69
r113 38 44 5.16603 $w=1.7e-07 $l=8.5e-08 $layer=LI1_cond $X=1.885 $Y=2.035
+ $X2=1.8 $Y2=2.035
r114 37 39 7.76618 $w=1.7e-07 $l=2.03101e-07 $layer=LI1_cond $X=2.335 $Y=2.035
+ $X2=2.5 $Y2=1.95
r115 37 38 29.3583 $w=1.68e-07 $l=4.5e-07 $layer=LI1_cond $X=2.335 $Y=2.035
+ $X2=1.885 $Y2=2.035
r116 33 44 1.34256 $w=1.7e-07 $l=8.5e-08 $layer=LI1_cond $X=1.8 $Y=2.12 $X2=1.8
+ $Y2=2.035
r117 33 35 25.7701 $w=1.68e-07 $l=3.95e-07 $layer=LI1_cond $X=1.8 $Y=2.12
+ $X2=1.8 $Y2=2.515
r118 29 31 11.699 $w=3.28e-07 $l=3.35e-07 $layer=LI1_cond $X=1.875 $Y=1.11
+ $X2=1.875 $Y2=0.775
r119 27 44 5.16603 $w=1.7e-07 $l=8.5e-08 $layer=LI1_cond $X=1.715 $Y=2.035
+ $X2=1.8 $Y2=2.035
r120 27 28 23.4866 $w=1.68e-07 $l=3.6e-07 $layer=LI1_cond $X=1.715 $Y=2.035
+ $X2=1.355 $Y2=2.035
r121 25 29 7.76618 $w=1.7e-07 $l=2.03101e-07 $layer=LI1_cond $X=1.71 $Y=1.195
+ $X2=1.875 $Y2=1.11
r122 25 26 23.1604 $w=1.68e-07 $l=3.55e-07 $layer=LI1_cond $X=1.71 $Y=1.195
+ $X2=1.355 $Y2=1.195
r123 23 24 72.64 $w=1.7e-07 $l=3.4e-07 $layer=licon1_POLY $count=2 $X=1.19
+ $Y=1.615 $X2=1.19 $Y2=1.615
r124 21 28 7.76618 $w=1.7e-07 $l=2.03101e-07 $layer=LI1_cond $X=1.19 $Y=1.95
+ $X2=1.355 $Y2=2.035
r125 21 23 11.699 $w=3.28e-07 $l=3.35e-07 $layer=LI1_cond $X=1.19 $Y=1.95
+ $X2=1.19 $Y2=1.615
r126 20 26 7.76618 $w=1.7e-07 $l=2.03101e-07 $layer=LI1_cond $X=1.19 $Y=1.28
+ $X2=1.355 $Y2=1.195
r127 20 23 11.699 $w=3.28e-07 $l=3.35e-07 $layer=LI1_cond $X=1.19 $Y=1.28
+ $X2=1.19 $Y2=1.615
r128 18 24 62.0758 $w=3.3e-07 $l=3.55e-07 $layer=POLY_cond $X=1.19 $Y=1.97
+ $X2=1.19 $Y2=1.615
r129 13 48 384.574 $w=1.5e-07 $l=7.5e-07 $layer=POLY_cond $X=2.59 $Y=0.775
+ $X2=2.59 $Y2=1.525
r130 7 18 151.266 $w=1.5e-07 $l=2.95e-07 $layer=POLY_cond $X=0.895 $Y=2.045
+ $X2=1.19 $Y2=2.045
r131 7 9 202.129 $w=1.8e-07 $l=5.2e-07 $layer=POLY_cond $X=0.895 $Y=2.12
+ $X2=0.895 $Y2=2.64
r132 2 35 600 $w=1.7e-07 $l=2.57488e-07 $layer=licon1_PDIFF $count=1 $X=1.655
+ $Y=2.32 $X2=1.8 $Y2=2.515
r133 1 31 182 $w=1.7e-07 $l=2.73038e-07 $layer=licon1_NDIFF $count=1 $X=1.73
+ $Y=0.565 $X2=1.875 $Y2=0.775
.ends

.subckt PM_SKY130_FD_SC_MS__SEDFXBP_1%DE 3 5 6 10 11 13 14 16 17 19 21 23 25 26
+ 29 30 31
c84 17 0 1.59932e-19 $X=2.615 $Y=2.17
r85 29 32 46.2115 $w=3.3e-07 $l=1.65e-07 $layer=POLY_cond $X=1.92 $Y=1.615
+ $X2=1.92 $Y2=1.78
r86 29 31 46.2115 $w=3.3e-07 $l=1.65e-07 $layer=POLY_cond $X=1.92 $Y=1.615
+ $X2=1.92 $Y2=1.45
r87 29 30 145.28 $w=1.7e-07 $l=1.7e-07 $layer=licon1_POLY $count=1 $X=1.92
+ $Y=1.615 $X2=1.92 $Y2=1.615
r88 26 30 8.3814 $w=3.28e-07 $l=2.4e-07 $layer=LI1_cond $X=1.68 $Y=1.615
+ $X2=1.92 $Y2=1.615
r89 22 23 133.319 $w=1.5e-07 $l=2.6e-07 $layer=POLY_cond $X=1.83 $Y=1.135
+ $X2=2.09 $Y2=1.135
r90 19 21 105.772 $w=1.8e-07 $l=3.95e-07 $layer=POLY_cond $X=2.705 $Y=2.245
+ $X2=2.705 $Y2=2.64
r91 18 25 6.66866 $w=1.5e-07 $l=9e-08 $layer=POLY_cond $X=2.115 $Y=2.17
+ $X2=2.025 $Y2=2.17
r92 17 19 27.2212 $w=1.5e-07 $l=1.21861e-07 $layer=POLY_cond $X=2.615 $Y=2.17
+ $X2=2.705 $Y2=2.245
r93 17 18 256.383 $w=1.5e-07 $l=5e-07 $layer=POLY_cond $X=2.615 $Y=2.17
+ $X2=2.115 $Y2=2.17
r94 14 23 2.83073 $w=1.5e-07 $l=7.5e-08 $layer=POLY_cond $X=2.09 $Y=1.06
+ $X2=2.09 $Y2=1.135
r95 14 16 91.58 $w=1.5e-07 $l=2.85e-07 $layer=POLY_cond $X=2.09 $Y=1.06 $X2=2.09
+ $Y2=0.775
r96 11 25 18.8402 $w=1.65e-07 $l=7.5e-08 $layer=POLY_cond $X=2.025 $Y=2.245
+ $X2=2.025 $Y2=2.17
r97 11 13 105.772 $w=1.8e-07 $l=3.95e-07 $layer=POLY_cond $X=2.025 $Y=2.245
+ $X2=2.025 $Y2=2.64
r98 10 25 18.8402 $w=1.65e-07 $l=8.21584e-08 $layer=POLY_cond $X=2.01 $Y=2.095
+ $X2=2.025 $Y2=2.17
r99 10 32 161.521 $w=1.5e-07 $l=3.15e-07 $layer=POLY_cond $X=2.01 $Y=2.095
+ $X2=2.01 $Y2=1.78
r100 7 22 2.83073 $w=1.5e-07 $l=7.5e-08 $layer=POLY_cond $X=1.83 $Y=1.21
+ $X2=1.83 $Y2=1.135
r101 7 31 123.064 $w=1.5e-07 $l=2.4e-07 $layer=POLY_cond $X=1.83 $Y=1.21
+ $X2=1.83 $Y2=1.45
r102 5 22 38.4574 $w=1.5e-07 $l=7.5e-08 $layer=POLY_cond $X=1.755 $Y=1.135
+ $X2=1.83 $Y2=1.135
r103 5 6 297.404 $w=1.5e-07 $l=5.8e-07 $layer=POLY_cond $X=1.755 $Y=1.135
+ $X2=1.175 $Y2=1.135
r104 1 6 26.9307 $w=1.5e-07 $l=1.06066e-07 $layer=POLY_cond $X=1.1 $Y=1.06
+ $X2=1.175 $Y2=1.135
r105 1 3 205.106 $w=1.5e-07 $l=4e-07 $layer=POLY_cond $X=1.1 $Y=1.06 $X2=1.1
+ $Y2=0.66
.ends

.subckt PM_SKY130_FD_SC_MS__SEDFXBP_1%A_575_305# 1 2 9 13 15 17 18 19 22 28 32
+ 37 42 44 47 49 50 52 53 55 56 58 59 60 66 70 71 75 85 87
c262 66 0 8.67988e-20 $X=14.16 $Y=2.035
c263 60 0 3.4364e-19 $X=3.265 $Y=2.035
c264 56 0 1.36772e-20 $X=15.765 $Y=1.485
c265 44 0 1.78091e-19 $X=14.515 $Y=1.92
c266 13 0 1.63622e-19 $X=3.125 $Y=2.64
r267 70 73 40.7132 $w=3.4e-07 $l=1.65e-07 $layer=POLY_cond $X=3.045 $Y=1.69
+ $X2=3.045 $Y2=1.855
r268 70 72 46.3065 $w=3.4e-07 $l=1.65e-07 $layer=POLY_cond $X=3.045 $Y=1.69
+ $X2=3.045 $Y2=1.525
r269 70 71 145.28 $w=1.7e-07 $l=1.7e-07 $layer=licon1_POLY $count=1 $X=3.04
+ $Y=1.69 $X2=3.04 $Y2=1.69
r270 67 87 9.23061 $w=4.58e-07 $l=3.55e-07 $layer=LI1_cond $X=14.16 $Y=2.15
+ $X2=14.515 $Y2=2.15
r271 67 85 4.03585 $w=4.58e-07 $l=1.15e-07 $layer=LI1_cond $X=14.16 $Y=2.15
+ $X2=14.045 $Y2=2.15
r272 66 67 9.3 $w=1.7e-07 $l=1.7e-07 $layer=mcon $count=1 $X=14.16 $Y=2.035
+ $X2=14.16 $Y2=2.035
r273 63 71 12.0483 $w=3.28e-07 $l=3.45e-07 $layer=LI1_cond $X=3.04 $Y=2.035
+ $X2=3.04 $Y2=1.69
r274 62 63 9.3 $w=1.7e-07 $l=1.7e-07 $layer=mcon $count=1 $X=3.12 $Y=2.035
+ $X2=3.12 $Y2=2.035
r275 60 62 0.115467 $w=2.3e-07 $l=1.45e-07 $layer=MET1_cond $X=3.265 $Y=2.035
+ $X2=3.12 $Y2=2.035
r276 59 66 0.115467 $w=2.3e-07 $l=1.45e-07 $layer=MET1_cond $X=14.015 $Y=2.035
+ $X2=14.16 $Y2=2.035
r277 59 60 13.3044 $w=1.4e-07 $l=1.075e-05 $layer=MET1_cond $X=14.015 $Y=2.035
+ $X2=3.265 $Y2=2.035
r278 56 79 40.6903 $w=3.3e-07 $l=1.65e-07 $layer=POLY_cond $X=15.765 $Y=1.485
+ $X2=15.765 $Y2=1.65
r279 56 78 46.2115 $w=3.3e-07 $l=1.65e-07 $layer=POLY_cond $X=15.765 $Y=1.485
+ $X2=15.765 $Y2=1.32
r280 55 56 145.28 $w=1.7e-07 $l=1.7e-07 $layer=licon1_POLY $count=1 $X=15.765
+ $Y=1.485 $X2=15.765 $Y2=1.485
r281 53 55 14.3182 $w=3.28e-07 $l=4.1e-07 $layer=LI1_cond $X=15.355 $Y=1.485
+ $X2=15.765 $Y2=1.485
r282 52 53 7.76618 $w=3.3e-07 $l=2.03101e-07 $layer=LI1_cond $X=15.27 $Y=1.32
+ $X2=15.355 $Y2=1.485
r283 51 52 58.3904 $w=1.68e-07 $l=8.95e-07 $layer=LI1_cond $X=15.27 $Y=0.425
+ $X2=15.27 $Y2=1.32
r284 49 51 6.81649 $w=1.7e-07 $l=1.20208e-07 $layer=LI1_cond $X=15.185 $Y=0.34
+ $X2=15.27 $Y2=0.425
r285 49 50 38.1658 $w=1.68e-07 $l=5.85e-07 $layer=LI1_cond $X=15.185 $Y=0.34
+ $X2=14.6 $Y2=0.34
r286 45 87 6.6364 $w=1.7e-07 $l=2.3e-07 $layer=LI1_cond $X=14.515 $Y=2.38
+ $X2=14.515 $Y2=2.15
r287 45 47 5.21925 $w=1.68e-07 $l=8e-08 $layer=LI1_cond $X=14.515 $Y=2.38
+ $X2=14.515 $Y2=2.46
r288 44 87 6.6364 $w=1.7e-07 $l=2.3e-07 $layer=LI1_cond $X=14.515 $Y=1.92
+ $X2=14.515 $Y2=2.15
r289 44 58 58.0642 $w=1.68e-07 $l=8.9e-07 $layer=LI1_cond $X=14.515 $Y=1.92
+ $X2=14.515 $Y2=1.03
r290 40 58 9.56083 $w=3.93e-07 $l=1.97e-07 $layer=LI1_cond $X=14.402 $Y=0.833
+ $X2=14.402 $Y2=1.03
r291 40 42 9.2779 $w=3.93e-07 $l=3.18e-07 $layer=LI1_cond $X=14.402 $Y=0.833
+ $X2=14.402 $Y2=0.515
r292 39 50 8.32734 $w=1.7e-07 $l=2.36715e-07 $layer=LI1_cond $X=14.402 $Y=0.425
+ $X2=14.6 $Y2=0.34
r293 39 42 2.62582 $w=3.93e-07 $l=9e-08 $layer=LI1_cond $X=14.402 $Y=0.425
+ $X2=14.402 $Y2=0.515
r294 37 76 40.6903 $w=3.3e-07 $l=1.65e-07 $layer=POLY_cond $X=13.625 $Y=2.215
+ $X2=13.625 $Y2=2.38
r295 37 75 46.2115 $w=3.3e-07 $l=1.65e-07 $layer=POLY_cond $X=13.625 $Y=2.215
+ $X2=13.625 $Y2=2.05
r296 36 85 14.8931 $w=3.23e-07 $l=4.2e-07 $layer=LI1_cond $X=13.625 $Y=2.217
+ $X2=14.045 $Y2=2.217
r297 36 37 145.28 $w=1.7e-07 $l=1.7e-07 $layer=licon1_POLY $count=1 $X=13.625
+ $Y=2.215 $X2=13.625 $Y2=2.215
r298 32 78 287.149 $w=1.5e-07 $l=5.6e-07 $layer=POLY_cond $X=15.825 $Y=0.76
+ $X2=15.825 $Y2=1.32
r299 28 79 291.532 $w=1.8e-07 $l=7.5e-07 $layer=POLY_cond $X=15.8 $Y=2.4
+ $X2=15.8 $Y2=1.65
r300 24 75 530.713 $w=1.5e-07 $l=1.035e-06 $layer=POLY_cond $X=13.68 $Y=1.015
+ $X2=13.68 $Y2=2.05
r301 22 76 143.823 $w=1.8e-07 $l=3.7e-07 $layer=POLY_cond $X=13.58 $Y=2.75
+ $X2=13.58 $Y2=2.38
r302 18 24 26.9307 $w=1.5e-07 $l=1.06066e-07 $layer=POLY_cond $X=13.605 $Y=0.94
+ $X2=13.68 $Y2=1.015
r303 18 19 199.979 $w=1.5e-07 $l=3.9e-07 $layer=POLY_cond $X=13.605 $Y=0.94
+ $X2=13.215 $Y2=0.94
r304 15 19 26.9307 $w=1.5e-07 $l=1.06066e-07 $layer=POLY_cond $X=13.14 $Y=0.865
+ $X2=13.215 $Y2=0.94
r305 15 17 91.58 $w=1.5e-07 $l=2.85e-07 $layer=POLY_cond $X=13.14 $Y=0.865
+ $X2=13.14 $Y2=0.58
r306 13 73 305.137 $w=1.8e-07 $l=7.85e-07 $layer=POLY_cond $X=3.125 $Y=2.64
+ $X2=3.125 $Y2=1.855
r307 9 72 384.574 $w=1.5e-07 $l=7.5e-07 $layer=POLY_cond $X=2.98 $Y=0.775
+ $X2=2.98 $Y2=1.525
r308 2 87 600 $w=1.7e-07 $l=2.01494e-07 $layer=licon1_PDIFF $count=1 $X=14.38
+ $Y=1.96 $X2=14.515 $Y2=2.105
r309 2 47 300 $w=1.7e-07 $l=5.63471e-07 $layer=licon1_PDIFF $count=2 $X=14.38
+ $Y=1.96 $X2=14.515 $Y2=2.46
r310 1 42 91 $w=1.7e-07 $l=2.03286e-07 $layer=licon1_NDIFF $count=2 $X=14.23
+ $Y=0.37 $X2=14.37 $Y2=0.515
.ends

.subckt PM_SKY130_FD_SC_MS__SEDFXBP_1%A_667_87# 1 2 7 9 10 11 14 18 22 23 28 29
+ 33 36 39 43 46 47
r92 47 59 40.6903 $w=3.3e-07 $l=1.65e-07 $layer=POLY_cond $X=5.73 $Y=1.955
+ $X2=5.73 $Y2=2.12
r93 46 47 145.28 $w=1.7e-07 $l=1.7e-07 $layer=licon1_POLY $count=1 $X=5.73
+ $Y=1.955 $X2=5.73 $Y2=1.955
r94 36 38 9.07533 $w=5.31e-07 $l=3.95e-07 $layer=LI1_cond $X=4.18 $Y=0.737
+ $X2=4.575 $Y2=0.737
r95 33 35 59.4528 $w=3.3e-07 $l=3.4e-07 $layer=POLY_cond $X=4.155 $Y=0.575
+ $X2=4.155 $Y2=0.915
r96 32 36 0.574388 $w=5.31e-07 $l=2.5e-08 $layer=LI1_cond $X=4.155 $Y=0.737
+ $X2=4.18 $Y2=0.737
r97 32 35 145.28 $w=1.7e-07 $l=1.7e-07 $layer=licon1_POLY $count=1 $X=4.155
+ $Y=0.915 $X2=4.155 $Y2=0.915
r98 32 33 145.28 $w=1.7e-07 $l=1.7e-07 $layer=licon1_POLY $count=1 $X=4.155
+ $Y=0.575 $X2=4.155 $Y2=0.575
r99 30 39 2.11342 $w=1.7e-07 $l=1.25e-07 $layer=LI1_cond $X=4.305 $Y=2.035
+ $X2=4.18 $Y2=2.035
r100 29 46 3.0228 $w=3.03e-07 $l=8e-08 $layer=LI1_cond $X=5.717 $Y=2.035
+ $X2=5.717 $Y2=1.955
r101 29 30 82.2032 $w=1.68e-07 $l=1.26e-06 $layer=LI1_cond $X=5.565 $Y=2.035
+ $X2=4.305 $Y2=2.035
r102 28 43 3.62566 $w=4.43e-07 $l=1.4e-07 $layer=LI1_cond $X=4.22 $Y=2.512
+ $X2=4.36 $Y2=2.512
r103 27 39 4.3182 $w=2.1e-07 $l=1.03078e-07 $layer=LI1_cond $X=4.22 $Y=2.12
+ $X2=4.18 $Y2=2.035
r104 27 28 11.0909 $w=1.68e-07 $l=1.7e-07 $layer=LI1_cond $X=4.22 $Y=2.12
+ $X2=4.22 $Y2=2.29
r105 25 26 96.8533 $w=1.7e-07 $l=2.55e-07 $layer=licon1_POLY $count=1 $X=4.155
+ $Y=1.935 $X2=4.155 $Y2=1.935
r106 23 26 118.906 $w=3.3e-07 $l=6.8e-07 $layer=POLY_cond $X=4.155 $Y=1.255
+ $X2=4.155 $Y2=1.935
r107 22 25 31.3464 $w=2.48e-07 $l=6.8e-07 $layer=LI1_cond $X=4.18 $Y=1.255
+ $X2=4.18 $Y2=1.935
r108 22 23 96.8533 $w=1.7e-07 $l=2.55e-07 $layer=licon1_POLY $count=1 $X=4.155
+ $Y=1.255 $X2=4.155 $Y2=1.255
r109 20 39 4.3182 $w=2.1e-07 $l=8.5e-08 $layer=LI1_cond $X=4.18 $Y=1.95 $X2=4.18
+ $Y2=2.035
r110 20 25 0.691466 $w=2.48e-07 $l=1.5e-08 $layer=LI1_cond $X=4.18 $Y=1.95
+ $X2=4.18 $Y2=1.935
r111 19 36 5.16051 $w=2.5e-07 $l=3.28e-07 $layer=LI1_cond $X=4.18 $Y=1.065
+ $X2=4.18 $Y2=0.737
r112 19 22 8.75857 $w=2.48e-07 $l=1.9e-07 $layer=LI1_cond $X=4.18 $Y=1.065
+ $X2=4.18 $Y2=1.255
r113 17 23 7.86876 $w=3.3e-07 $l=4.5e-08 $layer=POLY_cond $X=4.155 $Y=1.21
+ $X2=4.155 $Y2=1.255
r114 17 18 10.1687 $w=3.3e-07 $l=7.5e-08 $layer=POLY_cond $X=4.155 $Y=1.21
+ $X2=4.155 $Y2=1.135
r115 16 35 25.3549 $w=3.3e-07 $l=1.45e-07 $layer=POLY_cond $X=4.155 $Y=1.06
+ $X2=4.155 $Y2=0.915
r116 16 18 10.1687 $w=3.3e-07 $l=7.5e-08 $layer=POLY_cond $X=4.155 $Y=1.06
+ $X2=4.155 $Y2=1.135
r117 14 59 198.242 $w=1.8e-07 $l=5.1e-07 $layer=POLY_cond $X=5.655 $Y=2.63
+ $X2=5.655 $Y2=2.12
r118 10 18 16.9349 $w=1.5e-07 $l=1.65e-07 $layer=POLY_cond $X=3.99 $Y=1.135
+ $X2=4.155 $Y2=1.135
r119 10 11 258.947 $w=1.5e-07 $l=5.05e-07 $layer=POLY_cond $X=3.99 $Y=1.135
+ $X2=3.485 $Y2=1.135
r120 7 11 26.9307 $w=1.5e-07 $l=1.06066e-07 $layer=POLY_cond $X=3.41 $Y=1.06
+ $X2=3.485 $Y2=1.135
r121 7 9 91.58 $w=1.5e-07 $l=2.85e-07 $layer=POLY_cond $X=3.41 $Y=1.06 $X2=3.41
+ $Y2=0.775
r122 2 43 600 $w=1.7e-07 $l=2.62678e-07 $layer=licon1_PDIFF $count=1 $X=4.215
+ $Y=2.31 $X2=4.36 $Y2=2.51
r123 1 38 182 $w=1.7e-07 $l=2.73038e-07 $layer=licon1_NDIFF $count=1 $X=4.43
+ $Y=0.625 $X2=4.575 $Y2=0.835
.ends

.subckt PM_SKY130_FD_SC_MS__SEDFXBP_1%SCD 3 7 9 12
c39 12 0 7.32197e-20 $X=5.24 $Y=1.345
c40 9 0 7.28902e-20 $X=5.52 $Y=1.295
c41 3 0 9.1143e-20 $X=5.265 $Y=2.63
r42 12 15 40.6903 $w=3.3e-07 $l=1.65e-07 $layer=POLY_cond $X=5.24 $Y=1.345
+ $X2=5.24 $Y2=1.51
r43 12 14 46.2115 $w=3.3e-07 $l=1.65e-07 $layer=POLY_cond $X=5.24 $Y=1.345
+ $X2=5.24 $Y2=1.18
r44 12 13 145.28 $w=1.7e-07 $l=1.7e-07 $layer=licon1_POLY $count=1 $X=5.24
+ $Y=1.345 $X2=5.24 $Y2=1.345
r45 9 13 9.7783 $w=3.28e-07 $l=2.8e-07 $layer=LI1_cond $X=5.52 $Y=1.345 $X2=5.24
+ $Y2=1.345
r46 7 14 176.904 $w=1.5e-07 $l=3.45e-07 $layer=POLY_cond $X=5.3 $Y=0.835 $X2=5.3
+ $Y2=1.18
r47 3 15 435.355 $w=1.8e-07 $l=1.12e-06 $layer=POLY_cond $X=5.265 $Y=2.63
+ $X2=5.265 $Y2=1.51
.ends

.subckt PM_SKY130_FD_SC_MS__SEDFXBP_1%SCE 1 3 4 5 9 13 14 15 18 20 23 24
c71 24 0 7.32197e-20 $X=4.7 $Y=1.615
c72 23 0 7.28902e-20 $X=4.7 $Y=1.615
r73 23 26 40.6903 $w=3.3e-07 $l=1.65e-07 $layer=POLY_cond $X=4.7 $Y=1.615
+ $X2=4.7 $Y2=1.78
r74 23 25 46.2115 $w=3.3e-07 $l=1.65e-07 $layer=POLY_cond $X=4.7 $Y=1.615
+ $X2=4.7 $Y2=1.45
r75 23 24 145.28 $w=1.7e-07 $l=1.7e-07 $layer=licon1_POLY $count=1 $X=4.7
+ $Y=1.615 $X2=4.7 $Y2=1.615
r76 20 24 4.88915 $w=3.28e-07 $l=1.4e-07 $layer=LI1_cond $X=4.56 $Y=1.615
+ $X2=4.7 $Y2=1.615
r77 16 18 297.404 $w=1.5e-07 $l=5.8e-07 $layer=POLY_cond $X=5.69 $Y=0.255
+ $X2=5.69 $Y2=0.835
r78 14 16 26.9307 $w=1.5e-07 $l=1.06066e-07 $layer=POLY_cond $X=5.615 $Y=0.18
+ $X2=5.69 $Y2=0.255
r79 14 15 384.574 $w=1.5e-07 $l=7.5e-07 $layer=POLY_cond $X=5.615 $Y=0.18
+ $X2=4.865 $Y2=0.18
r80 13 25 315.351 $w=1.5e-07 $l=6.15e-07 $layer=POLY_cond $X=4.79 $Y=0.835
+ $X2=4.79 $Y2=1.45
r81 10 15 26.9307 $w=1.5e-07 $l=1.06066e-07 $layer=POLY_cond $X=4.79 $Y=0.255
+ $X2=4.865 $Y2=0.18
r82 10 13 297.404 $w=1.5e-07 $l=5.8e-07 $layer=POLY_cond $X=4.79 $Y=0.255
+ $X2=4.79 $Y2=0.835
r83 9 26 330.403 $w=1.8e-07 $l=8.5e-07 $layer=POLY_cond $X=4.65 $Y=2.63 $X2=4.65
+ $Y2=1.78
r84 7 9 157.427 $w=1.8e-07 $l=4.05e-07 $layer=POLY_cond $X=4.65 $Y=3.035
+ $X2=4.65 $Y2=2.63
r85 4 7 27.2212 $w=1.5e-07 $l=1.21861e-07 $layer=POLY_cond $X=4.56 $Y=3.11
+ $X2=4.65 $Y2=3.035
r86 4 5 458.926 $w=1.5e-07 $l=8.95e-07 $layer=POLY_cond $X=4.56 $Y=3.11
+ $X2=3.665 $Y2=3.11
r87 1 5 27.2212 $w=1.5e-07 $l=1.21861e-07 $layer=POLY_cond $X=3.575 $Y=3.035
+ $X2=3.665 $Y2=3.11
r88 1 3 105.772 $w=1.8e-07 $l=3.95e-07 $layer=POLY_cond $X=3.575 $Y=3.035
+ $X2=3.575 $Y2=2.64
.ends

.subckt PM_SKY130_FD_SC_MS__SEDFXBP_1%CLK 3 7 8 11 13
r37 11 14 40.6903 $w=3.3e-07 $l=1.65e-07 $layer=POLY_cond $X=6.74 $Y=1.385
+ $X2=6.74 $Y2=1.55
r38 11 13 46.2115 $w=3.3e-07 $l=1.65e-07 $layer=POLY_cond $X=6.74 $Y=1.385
+ $X2=6.74 $Y2=1.22
r39 11 12 145.28 $w=1.7e-07 $l=1.7e-07 $layer=licon1_POLY $count=1 $X=6.74
+ $Y=1.385 $X2=6.74 $Y2=1.385
r40 8 12 6.85236 $w=3.68e-07 $l=2.2e-07 $layer=LI1_cond $X=6.96 $Y=1.365
+ $X2=6.74 $Y2=1.365
r41 7 13 154.24 $w=1.5e-07 $l=4.8e-07 $layer=POLY_cond $X=6.68 $Y=0.74 $X2=6.68
+ $Y2=1.22
r42 3 14 330.403 $w=1.8e-07 $l=8.5e-07 $layer=POLY_cond $X=6.665 $Y=2.4
+ $X2=6.665 $Y2=1.55
.ends

.subckt PM_SKY130_FD_SC_MS__SEDFXBP_1%A_1549_74# 1 2 9 13 16 18 20 24 27 29 30
+ 31 37 40 41 44 45 46 48 49 50 51 53 56 59 62 64 65 68 71 75 80 84
c229 84 0 1.73561e-19 $X=12.24 $Y=1.635
c230 75 0 1.02428e-19 $X=13.23 $Y=1.39
c231 71 0 9.34686e-20 $X=13.23 $Y=1.215
c232 65 0 1.64433e-19 $X=9.535 $Y=0.935
c233 62 0 2.0055e-20 $X=8.75 $Y=2.215
c234 31 0 1.88738e-19 $X=8.585 $Y=1.98
c235 20 0 1.58205e-19 $X=13.16 $Y=2.75
r236 75 88 46.2115 $w=3.3e-07 $l=1.65e-07 $layer=POLY_cond $X=13.23 $Y=1.39
+ $X2=13.23 $Y2=1.555
r237 74 75 145.28 $w=1.7e-07 $l=1.7e-07 $layer=licon1_POLY $count=1 $X=13.23
+ $Y=1.39 $X2=13.23 $Y2=1.39
r238 71 74 6.11144 $w=3.28e-07 $l=1.75e-07 $layer=LI1_cond $X=13.23 $Y=1.215
+ $X2=13.23 $Y2=1.39
r239 69 70 15.457 $w=2.21e-07 $l=2.8e-07 $layer=LI1_cond $X=12.102 $Y=0.935
+ $X2=12.102 $Y2=1.215
r240 68 80 46.2115 $w=3.3e-07 $l=1.65e-07 $layer=POLY_cond $X=9.485 $Y=1.285
+ $X2=9.485 $Y2=1.12
r241 67 68 145.28 $w=1.7e-07 $l=1.7e-07 $layer=licon1_POLY $count=1 $X=9.485
+ $Y=1.285 $X2=9.485 $Y2=1.285
r242 65 67 16.4231 $w=2.6e-07 $l=3.5e-07 $layer=LI1_cond $X=9.535 $Y=0.935
+ $X2=9.535 $Y2=1.285
r243 61 62 145.28 $w=1.7e-07 $l=1.7e-07 $layer=licon1_POLY $count=1 $X=8.75
+ $Y=2.215 $X2=8.75 $Y2=2.215
r244 57 70 2.27611 $w=1.7e-07 $l=1.53e-07 $layer=LI1_cond $X=12.255 $Y=1.215
+ $X2=12.102 $Y2=1.215
r245 56 71 4.62375 $w=1.7e-07 $l=1.65e-07 $layer=LI1_cond $X=13.065 $Y=1.215
+ $X2=13.23 $Y2=1.215
r246 56 57 52.8449 $w=1.68e-07 $l=8.1e-07 $layer=LI1_cond $X=13.065 $Y=1.215
+ $X2=12.255 $Y2=1.215
r247 54 84 21.8577 $w=3.3e-07 $l=1.25e-07 $layer=POLY_cond $X=12.115 $Y=1.635
+ $X2=12.24 $Y2=1.635
r248 53 54 145.28 $w=1.7e-07 $l=1.7e-07 $layer=licon1_POLY $count=1 $X=12.115
+ $Y=1.635 $X2=12.115 $Y2=1.635
r249 51 70 4.34639 $w=3.05e-07 $l=8.5e-08 $layer=LI1_cond $X=12.102 $Y=1.3
+ $X2=12.102 $Y2=1.215
r250 51 53 12.658 $w=3.03e-07 $l=3.35e-07 $layer=LI1_cond $X=12.102 $Y=1.3
+ $X2=12.102 $Y2=1.635
r251 49 69 2.27611 $w=1.7e-07 $l=1.52e-07 $layer=LI1_cond $X=11.95 $Y=0.935
+ $X2=12.102 $Y2=0.935
r252 49 50 35.2299 $w=1.68e-07 $l=5.4e-07 $layer=LI1_cond $X=11.95 $Y=0.935
+ $X2=11.41 $Y2=0.935
r253 48 50 6.81649 $w=1.7e-07 $l=1.20208e-07 $layer=LI1_cond $X=11.325 $Y=0.85
+ $X2=11.41 $Y2=0.935
r254 47 48 27.7273 $w=1.68e-07 $l=4.25e-07 $layer=LI1_cond $X=11.325 $Y=0.425
+ $X2=11.325 $Y2=0.85
r255 45 47 6.81649 $w=1.7e-07 $l=1.20208e-07 $layer=LI1_cond $X=11.24 $Y=0.34
+ $X2=11.325 $Y2=0.425
r256 45 46 33.2727 $w=1.68e-07 $l=5.1e-07 $layer=LI1_cond $X=11.24 $Y=0.34
+ $X2=10.73 $Y2=0.34
r257 43 46 6.81649 $w=1.7e-07 $l=1.20208e-07 $layer=LI1_cond $X=10.645 $Y=0.425
+ $X2=10.73 $Y2=0.34
r258 43 44 27.7273 $w=1.68e-07 $l=4.25e-07 $layer=LI1_cond $X=10.645 $Y=0.425
+ $X2=10.645 $Y2=0.85
r259 42 65 3.22376 $w=1.7e-07 $l=1.55e-07 $layer=LI1_cond $X=9.69 $Y=0.935
+ $X2=9.535 $Y2=0.935
r260 41 44 6.81649 $w=1.7e-07 $l=1.20208e-07 $layer=LI1_cond $X=10.56 $Y=0.935
+ $X2=10.645 $Y2=0.85
r261 41 42 56.7594 $w=1.68e-07 $l=8.7e-07 $layer=LI1_cond $X=10.56 $Y=0.935
+ $X2=9.69 $Y2=0.935
r262 40 65 4.66935 $w=2.6e-07 $l=1.09087e-07 $layer=LI1_cond $X=9.59 $Y=0.85
+ $X2=9.535 $Y2=0.935
r263 39 40 23.5682 $w=1.98e-07 $l=4.25e-07 $layer=LI1_cond $X=9.59 $Y=0.425
+ $X2=9.59 $Y2=0.85
r264 38 64 5.16603 $w=1.7e-07 $l=8.5e-08 $layer=LI1_cond $X=8.87 $Y=0.34
+ $X2=8.785 $Y2=0.34
r265 37 39 6.87494 $w=1.7e-07 $l=1.36015e-07 $layer=LI1_cond $X=9.49 $Y=0.34
+ $X2=9.59 $Y2=0.425
r266 37 38 40.4492 $w=1.68e-07 $l=6.2e-07 $layer=LI1_cond $X=9.49 $Y=0.34
+ $X2=8.87 $Y2=0.34
r267 35 64 1.34256 $w=1.7e-07 $l=8.5e-08 $layer=LI1_cond $X=8.785 $Y=0.425
+ $X2=8.785 $Y2=0.34
r268 35 59 91.0107 $w=1.68e-07 $l=1.395e-06 $layer=LI1_cond $X=8.785 $Y=0.425
+ $X2=8.785 $Y2=1.82
r269 31 61 9.5026 $w=2.83e-07 $l=2.35e-07 $layer=LI1_cond $X=8.727 $Y=1.98
+ $X2=8.727 $Y2=2.215
r270 31 59 8.33135 $w=2.83e-07 $l=1.6e-07 $layer=LI1_cond $X=8.727 $Y=1.98
+ $X2=8.727 $Y2=1.82
r271 31 33 10.9842 $w=3.18e-07 $l=3.05e-07 $layer=LI1_cond $X=8.585 $Y=1.98
+ $X2=8.28 $Y2=1.98
r272 29 64 5.16603 $w=1.7e-07 $l=8.5e-08 $layer=LI1_cond $X=8.7 $Y=0.34
+ $X2=8.785 $Y2=0.34
r273 29 30 42.4064 $w=1.68e-07 $l=6.5e-07 $layer=LI1_cond $X=8.7 $Y=0.34
+ $X2=8.05 $Y2=0.34
r274 25 30 7.14316 $w=1.7e-07 $l=1.62019e-07 $layer=LI1_cond $X=7.925 $Y=0.425
+ $X2=8.05 $Y2=0.34
r275 25 27 4.14879 $w=2.48e-07 $l=9e-08 $layer=LI1_cond $X=7.925 $Y=0.425
+ $X2=7.925 $Y2=0.515
r276 24 88 248.691 $w=1.5e-07 $l=4.85e-07 $layer=POLY_cond $X=13.175 $Y=2.04
+ $X2=13.175 $Y2=1.555
r277 18 24 37.1337 $w=1.8e-07 $l=9e-08 $layer=POLY_cond $X=13.16 $Y=2.13
+ $X2=13.16 $Y2=2.04
r278 18 20 241 $w=1.8e-07 $l=6.2e-07 $layer=POLY_cond $X=13.16 $Y=2.13 $X2=13.16
+ $Y2=2.75
r279 14 84 21.2229 $w=1.5e-07 $l=1.65e-07 $layer=POLY_cond $X=12.24 $Y=1.47
+ $X2=12.24 $Y2=1.635
r280 14 16 399.957 $w=1.5e-07 $l=7.8e-07 $layer=POLY_cond $X=12.24 $Y=1.47
+ $X2=12.24 $Y2=0.69
r281 13 80 102.827 $w=1.5e-07 $l=3.2e-07 $layer=POLY_cond $X=9.4 $Y=0.8 $X2=9.4
+ $Y2=1.12
r282 7 62 63.3705 $w=2.51e-07 $l=4.04166e-07 $layer=POLY_cond $X=9.08 $Y=2.38
+ $X2=8.75 $Y2=2.215
r283 7 9 143.823 $w=1.8e-07 $l=3.7e-07 $layer=POLY_cond $X=9.08 $Y=2.38 $X2=9.08
+ $Y2=2.75
r284 2 33 600 $w=1.7e-07 $l=2.38118e-07 $layer=licon1_PDIFF $count=1 $X=8.145
+ $Y=1.84 $X2=8.28 $Y2=2.02
r285 1 27 91 $w=1.7e-07 $l=2.03286e-07 $layer=licon1_NDIFF $count=2 $X=7.745
+ $Y=0.37 $X2=7.885 $Y2=0.515
.ends

.subckt PM_SKY130_FD_SC_MS__SEDFXBP_1%A_1351_74# 1 2 9 11 13 15 16 20 22 24 26
+ 30 34 37 38 39 46 48 49 51 52 58 59 60 62 65 66 67 72 73
c204 73 0 9.34686e-20 $X=12.69 $Y=1.635
c205 59 0 1.58205e-19 $X=12.425 $Y=2.475
c206 58 0 2.0055e-20 $X=9.775 $Y=2.39
c207 39 0 1.88738e-19 $X=8.66 $Y=1.727
c208 26 0 7.25971e-20 $X=9.58 $Y=2.75
c209 24 0 1.64433e-19 $X=9.58 $Y=2.255
r210 73 81 40.6903 $w=3.3e-07 $l=1.65e-07 $layer=POLY_cond $X=12.69 $Y=1.635
+ $X2=12.69 $Y2=1.8
r211 73 80 46.2115 $w=3.3e-07 $l=1.65e-07 $layer=POLY_cond $X=12.69 $Y=1.635
+ $X2=12.69 $Y2=1.47
r212 72 73 145.28 $w=1.7e-07 $l=1.7e-07 $layer=licon1_POLY $count=1 $X=12.69
+ $Y=1.635 $X2=12.69 $Y2=1.635
r213 69 72 6.28605 $w=3.28e-07 $l=1.8e-07 $layer=LI1_cond $X=12.51 $Y=1.635
+ $X2=12.69 $Y2=1.635
r214 64 67 2.7938 $w=3.28e-07 $l=8e-08 $layer=LI1_cond $X=7.36 $Y=1.975 $X2=7.44
+ $Y2=1.975
r215 64 66 10.6514 $w=3.28e-07 $l=3.05e-07 $layer=LI1_cond $X=7.36 $Y=1.975
+ $X2=7.055 $Y2=1.975
r216 64 65 145.28 $w=1.7e-07 $l=1.7e-07 $layer=licon1_POLY $count=1 $X=7.36
+ $Y=1.975 $X2=7.36 $Y2=1.975
r217 61 69 4.62375 $w=1.7e-07 $l=1.65e-07 $layer=LI1_cond $X=12.51 $Y=1.8
+ $X2=12.51 $Y2=1.635
r218 61 62 38.492 $w=1.68e-07 $l=5.9e-07 $layer=LI1_cond $X=12.51 $Y=1.8
+ $X2=12.51 $Y2=2.39
r219 59 62 6.81649 $w=1.7e-07 $l=1.20208e-07 $layer=LI1_cond $X=12.425 $Y=2.475
+ $X2=12.51 $Y2=2.39
r220 59 60 167.342 $w=1.68e-07 $l=2.565e-06 $layer=LI1_cond $X=12.425 $Y=2.475
+ $X2=9.86 $Y2=2.475
r221 58 60 6.81649 $w=1.7e-07 $l=1.20208e-07 $layer=LI1_cond $X=9.775 $Y=2.39
+ $X2=9.86 $Y2=2.475
r222 57 58 11.0909 $w=1.68e-07 $l=1.7e-07 $layer=LI1_cond $X=9.775 $Y=2.22
+ $X2=9.775 $Y2=2.39
r223 54 55 145.28 $w=1.7e-07 $l=1.7e-07 $layer=licon1_POLY $count=1 $X=9.545
+ $Y=2.09 $X2=9.545 $Y2=2.09
r224 52 57 7.21222 $w=2.6e-07 $l=1.67183e-07 $layer=LI1_cond $X=9.69 $Y=2.09
+ $X2=9.775 $Y2=2.22
r225 52 54 6.42709 $w=2.58e-07 $l=1.45e-07 $layer=LI1_cond $X=9.69 $Y=2.09
+ $X2=9.545 $Y2=2.09
r226 51 67 4.62375 $w=1.7e-07 $l=1.65e-07 $layer=LI1_cond $X=7.44 $Y=1.81
+ $X2=7.44 $Y2=1.975
r227 50 51 52.1925 $w=1.68e-07 $l=8e-07 $layer=LI1_cond $X=7.44 $Y=1.01 $X2=7.44
+ $Y2=1.81
r228 48 50 6.81649 $w=1.7e-07 $l=1.20208e-07 $layer=LI1_cond $X=7.355 $Y=0.925
+ $X2=7.44 $Y2=1.01
r229 48 49 19.246 $w=1.68e-07 $l=2.95e-07 $layer=LI1_cond $X=7.355 $Y=0.925
+ $X2=7.06 $Y2=0.925
r230 44 49 7.76618 $w=1.7e-07 $l=2.03101e-07 $layer=LI1_cond $X=6.895 $Y=0.84
+ $X2=7.06 $Y2=0.925
r231 44 46 11.3498 $w=3.28e-07 $l=3.25e-07 $layer=LI1_cond $X=6.895 $Y=0.84
+ $X2=6.895 $Y2=0.515
r232 42 66 5.94228 $w=3.18e-07 $l=1.65e-07 $layer=LI1_cond $X=6.89 $Y=1.98
+ $X2=7.055 $Y2=1.98
r233 36 65 36.7209 $w=3.3e-07 $l=2.1e-07 $layer=POLY_cond $X=7.36 $Y=1.765
+ $X2=7.36 $Y2=1.975
r234 36 37 13.5877 $w=2.4e-07 $l=1.42653e-07 $layer=POLY_cond $X=7.36 $Y=1.765
+ $X2=7.47 $Y2=1.69
r235 34 80 456.362 $w=1.5e-07 $l=8.9e-07 $layer=POLY_cond $X=12.75 $Y=0.58
+ $X2=12.75 $Y2=1.47
r236 30 81 256.548 $w=1.8e-07 $l=6.6e-07 $layer=POLY_cond $X=12.625 $Y=2.46
+ $X2=12.625 $Y2=1.8
r237 24 55 35.4194 $w=2.55e-07 $l=1.81659e-07 $layer=POLY_cond $X=9.58 $Y=2.255
+ $X2=9.545 $Y2=2.09
r238 24 26 192.411 $w=1.8e-07 $l=4.95e-07 $layer=POLY_cond $X=9.58 $Y=2.255
+ $X2=9.58 $Y2=2.75
r239 23 39 20.4101 $w=1.5e-07 $l=9.20598e-08 $layer=POLY_cond $X=8.735 $Y=1.765
+ $X2=8.66 $Y2=1.727
r240 22 55 61.4314 $w=2.55e-07 $l=3.99061e-07 $layer=POLY_cond $X=9.38 $Y=1.765
+ $X2=9.545 $Y2=2.09
r241 22 23 330.734 $w=1.5e-07 $l=6.45e-07 $layer=POLY_cond $X=9.38 $Y=1.765
+ $X2=8.735 $Y2=1.765
r242 18 39 5.30422 $w=1.5e-07 $l=1.12e-07 $layer=POLY_cond $X=8.66 $Y=1.615
+ $X2=8.66 $Y2=1.727
r243 18 20 417.904 $w=1.5e-07 $l=8.15e-07 $layer=POLY_cond $X=8.66 $Y=1.615
+ $X2=8.66 $Y2=0.8
r244 17 38 23.6879 $w=1.5e-07 $l=9e-08 $layer=POLY_cond $X=8.145 $Y=1.69
+ $X2=8.055 $Y2=1.69
r245 16 39 20.4101 $w=1.5e-07 $l=9.16515e-08 $layer=POLY_cond $X=8.585 $Y=1.69
+ $X2=8.66 $Y2=1.727
r246 16 17 225.617 $w=1.5e-07 $l=4.4e-07 $layer=POLY_cond $X=8.585 $Y=1.69
+ $X2=8.145 $Y2=1.69
r247 13 38 2.7459 $w=1.8e-07 $l=7.5e-08 $layer=POLY_cond $X=8.055 $Y=1.765
+ $X2=8.055 $Y2=1.69
r248 13 15 170.039 $w=1.8e-07 $l=6.35e-07 $layer=POLY_cond $X=8.055 $Y=1.765
+ $X2=8.055 $Y2=2.4
r249 12 37 12.1617 $w=1.5e-07 $l=2.75e-07 $layer=POLY_cond $X=7.745 $Y=1.69
+ $X2=7.47 $Y2=1.69
r250 11 38 23.6879 $w=1.5e-07 $l=9e-08 $layer=POLY_cond $X=7.965 $Y=1.69
+ $X2=8.055 $Y2=1.69
r251 11 12 112.809 $w=1.5e-07 $l=2.2e-07 $layer=POLY_cond $X=7.965 $Y=1.69
+ $X2=7.745 $Y2=1.69
r252 7 37 13.5877 $w=2.4e-07 $l=2.34521e-07 $layer=POLY_cond $X=7.67 $Y=1.615
+ $X2=7.47 $Y2=1.69
r253 7 9 448.67 $w=1.5e-07 $l=8.75e-07 $layer=POLY_cond $X=7.67 $Y=1.615
+ $X2=7.67 $Y2=0.74
r254 2 42 600 $w=1.7e-07 $l=2.38118e-07 $layer=licon1_PDIFF $count=1 $X=6.755
+ $Y=1.84 $X2=6.89 $Y2=2.02
r255 1 46 91 $w=1.7e-07 $l=2.03286e-07 $layer=licon1_NDIFF $count=2 $X=6.755
+ $Y=0.37 $X2=6.895 $Y2=0.515
.ends

.subckt PM_SKY130_FD_SC_MS__SEDFXBP_1%A_1972_92# 1 2 9 13 17 19 21 23 24 26 32
+ 35 38 39 43 45 46
c107 38 0 1.73561e-19 $X=11.575 $Y=1.355
r108 43 49 40.6903 $w=3.3e-07 $l=1.65e-07 $layer=POLY_cond $X=10.025 $Y=1.32
+ $X2=10.025 $Y2=1.485
r109 43 48 46.2115 $w=3.3e-07 $l=1.65e-07 $layer=POLY_cond $X=10.025 $Y=1.32
+ $X2=10.025 $Y2=1.155
r110 42 45 8.69362 $w=2.58e-07 $l=1.65e-07 $layer=LI1_cond $X=10.025 $Y=1.32
+ $X2=10.19 $Y2=1.32
r111 42 43 145.28 $w=1.7e-07 $l=1.7e-07 $layer=licon1_POLY $count=1 $X=10.025
+ $Y=1.32 $X2=10.025 $Y2=1.32
r112 38 39 72.64 $w=1.7e-07 $l=3.4e-07 $layer=licon1_POLY $count=2 $X=11.575
+ $Y=1.355 $X2=11.575 $Y2=1.355
r113 36 46 1.96316 $w=3.3e-07 $l=8.5e-08 $layer=LI1_cond $X=11.07 $Y=1.355
+ $X2=10.985 $Y2=1.355
r114 36 38 17.6359 $w=3.28e-07 $l=5.05e-07 $layer=LI1_cond $X=11.07 $Y=1.355
+ $X2=11.575 $Y2=1.355
r115 34 46 4.30018 $w=1.7e-07 $l=1.65e-07 $layer=LI1_cond $X=10.985 $Y=1.52
+ $X2=10.985 $Y2=1.355
r116 34 35 34.5775 $w=1.68e-07 $l=5.3e-07 $layer=LI1_cond $X=10.985 $Y=1.52
+ $X2=10.985 $Y2=2.05
r117 30 46 4.30018 $w=1.7e-07 $l=1.65e-07 $layer=LI1_cond $X=10.985 $Y=1.19
+ $X2=10.985 $Y2=1.355
r118 30 32 24.7914 $w=1.68e-07 $l=3.8e-07 $layer=LI1_cond $X=10.985 $Y=1.19
+ $X2=10.985 $Y2=0.81
r119 26 35 6.81649 $w=1.7e-07 $l=1.20208e-07 $layer=LI1_cond $X=10.9 $Y=2.135
+ $X2=10.985 $Y2=2.05
r120 26 28 7.82888 $w=1.68e-07 $l=1.2e-07 $layer=LI1_cond $X=10.9 $Y=2.135
+ $X2=10.78 $Y2=2.135
r121 24 46 1.96316 $w=1.7e-07 $l=1.18427e-07 $layer=LI1_cond $X=10.9 $Y=1.275
+ $X2=10.985 $Y2=1.355
r122 24 45 46.3209 $w=1.68e-07 $l=7.1e-07 $layer=LI1_cond $X=10.9 $Y=1.275
+ $X2=10.19 $Y2=1.275
r123 21 23 134.96 $w=1.5e-07 $l=4.2e-07 $layer=POLY_cond $X=11.88 $Y=1.11
+ $X2=11.88 $Y2=0.69
r124 17 21 41.3657 $w=2.68e-07 $l=3.77889e-07 $layer=POLY_cond $X=11.65 $Y=1.39
+ $X2=11.88 $Y2=1.11
r125 17 39 13.4888 $w=2.68e-07 $l=7.5e-08 $layer=POLY_cond $X=11.65 $Y=1.39
+ $X2=11.575 $Y2=1.39
r126 17 19 365.387 $w=1.8e-07 $l=9.4e-07 $layer=POLY_cond $X=11.65 $Y=1.52
+ $X2=11.65 $Y2=2.46
r127 13 49 491.718 $w=1.8e-07 $l=1.265e-06 $layer=POLY_cond $X=10.01 $Y=2.75
+ $X2=10.01 $Y2=1.485
r128 9 48 182.032 $w=1.5e-07 $l=3.55e-07 $layer=POLY_cond $X=9.935 $Y=0.8
+ $X2=9.935 $Y2=1.155
r129 2 28 600 $w=1.7e-07 $l=2.01494e-07 $layer=licon1_PDIFF $count=1 $X=10.645
+ $Y=1.99 $X2=10.78 $Y2=2.135
r130 1 32 182 $w=1.7e-07 $l=5.11664e-07 $layer=licon1_NDIFF $count=1 $X=10.83
+ $Y=0.37 $X2=10.985 $Y2=0.81
.ends

.subckt PM_SKY130_FD_SC_MS__SEDFXBP_1%A_1747_118# 1 2 9 13 16 21 26 29 30 31 33
+ 35 40
c98 29 0 1.97671e-19 $X=9.125 $Y=1.705
r99 34 40 33.2236 $w=3.3e-07 $l=1.9e-07 $layer=POLY_cond $X=10.565 $Y=1.665
+ $X2=10.755 $Y2=1.665
r100 34 37 1.74861 $w=3.3e-07 $l=1e-08 $layer=POLY_cond $X=10.565 $Y=1.665
+ $X2=10.555 $Y2=1.665
r101 33 35 8.48463 $w=2.98e-07 $l=1.65e-07 $layer=LI1_cond $X=10.565 $Y=1.68
+ $X2=10.4 $Y2=1.68
r102 33 34 145.28 $w=1.7e-07 $l=1.7e-07 $layer=licon1_POLY $count=1 $X=10.565