* File: sky130_fd_sc_ms__o2bb2ai_4.pex.spice
* Created: Fri Aug 28 18:00:35 2020
* Program "Calibre xRC"
* Version "v2018.4_34.26"
* Nominal Temperature: 27C
* Circuit Temperature: 27C
* 
.subckt PM_SKY130_FD_SC_MS__O2BB2AI_4%A1_N 3 7 11 15 19 23 27 31 33 34 35 36 52
+ 54
c84 27 0 8.01953e-20 $X=1.795 $Y=0.74
r85 53 54 8.74306 $w=3.3e-07 $l=5e-08 $layer=POLY_cond $X=1.795 $Y=1.515
+ $X2=1.845 $Y2=1.515
r86 51 53 4.37153 $w=3.3e-07 $l=2.5e-08 $layer=POLY_cond $X=1.77 $Y=1.515
+ $X2=1.795 $Y2=1.515
r87 51 52 58.112 $w=1.7e-07 $l=4.25e-07 $layer=licon1_POLY $count=2 $X=1.77
+ $Y=1.515 $X2=1.77 $Y2=1.515
r88 49 51 65.573 $w=3.3e-07 $l=3.75e-07 $layer=POLY_cond $X=1.395 $Y=1.515
+ $X2=1.77 $Y2=1.515
r89 48 49 5.24584 $w=3.3e-07 $l=3e-08 $layer=POLY_cond $X=1.365 $Y=1.515
+ $X2=1.395 $Y2=1.515
r90 47 48 73.4417 $w=3.3e-07 $l=4.2e-07 $layer=POLY_cond $X=0.945 $Y=1.515
+ $X2=1.365 $Y2=1.515
r91 46 47 3.49723 $w=3.3e-07 $l=2e-08 $layer=POLY_cond $X=0.925 $Y=1.515
+ $X2=0.945 $Y2=1.515
r92 45 46 75.1904 $w=3.3e-07 $l=4.3e-07 $layer=POLY_cond $X=0.495 $Y=1.515
+ $X2=0.925 $Y2=1.515
r93 42 45 14.8632 $w=3.3e-07 $l=8.5e-08 $layer=POLY_cond $X=0.41 $Y=1.515
+ $X2=0.495 $Y2=1.515
r94 42 43 58.112 $w=1.7e-07 $l=4.25e-07 $layer=licon1_POLY $count=2 $X=0.41
+ $Y=1.515 $X2=0.41 $Y2=1.515
r95 36 52 2.41209 $w=4.28e-07 $l=9e-08 $layer=LI1_cond $X=1.68 $Y=1.565 $X2=1.77
+ $Y2=1.565
r96 35 36 12.8645 $w=4.28e-07 $l=4.8e-07 $layer=LI1_cond $X=1.2 $Y=1.565
+ $X2=1.68 $Y2=1.565
r97 34 35 12.8645 $w=4.28e-07 $l=4.8e-07 $layer=LI1_cond $X=0.72 $Y=1.565
+ $X2=1.2 $Y2=1.565
r98 34 43 8.30831 $w=4.28e-07 $l=3.1e-07 $layer=LI1_cond $X=0.72 $Y=1.565
+ $X2=0.41 $Y2=1.565
r99 33 43 4.55617 $w=4.28e-07 $l=1.7e-07 $layer=LI1_cond $X=0.24 $Y=1.565
+ $X2=0.41 $Y2=1.565
r100 29 54 16.9318 $w=1.8e-07 $l=1.65e-07 $layer=POLY_cond $X=1.845 $Y=1.68
+ $X2=1.845 $Y2=1.515
r101 29 31 279.871 $w=1.8e-07 $l=7.2e-07 $layer=POLY_cond $X=1.845 $Y=1.68
+ $X2=1.845 $Y2=2.4
r102 25 53 21.2229 $w=1.5e-07 $l=1.65e-07 $layer=POLY_cond $X=1.795 $Y=1.35
+ $X2=1.795 $Y2=1.515
r103 25 27 312.787 $w=1.5e-07 $l=6.1e-07 $layer=POLY_cond $X=1.795 $Y=1.35
+ $X2=1.795 $Y2=0.74
r104 21 49 16.9318 $w=1.8e-07 $l=1.65e-07 $layer=POLY_cond $X=1.395 $Y=1.68
+ $X2=1.395 $Y2=1.515
r105 21 23 279.871 $w=1.8e-07 $l=7.2e-07 $layer=POLY_cond $X=1.395 $Y=1.68
+ $X2=1.395 $Y2=2.4
r106 17 48 21.2229 $w=1.5e-07 $l=1.65e-07 $layer=POLY_cond $X=1.365 $Y=1.35
+ $X2=1.365 $Y2=1.515
r107 17 19 312.787 $w=1.5e-07 $l=6.1e-07 $layer=POLY_cond $X=1.365 $Y=1.35
+ $X2=1.365 $Y2=0.74
r108 13 47 16.9318 $w=1.8e-07 $l=1.65e-07 $layer=POLY_cond $X=0.945 $Y=1.68
+ $X2=0.945 $Y2=1.515
r109 13 15 279.871 $w=1.8e-07 $l=7.2e-07 $layer=POLY_cond $X=0.945 $Y=1.68
+ $X2=0.945 $Y2=2.4
r110 9 46 21.2229 $w=1.5e-07 $l=1.65e-07 $layer=POLY_cond $X=0.925 $Y=1.35
+ $X2=0.925 $Y2=1.515
r111 9 11 312.787 $w=1.5e-07 $l=6.1e-07 $layer=POLY_cond $X=0.925 $Y=1.35
+ $X2=0.925 $Y2=0.74
r112 5 45 21.2229 $w=1.5e-07 $l=1.65e-07 $layer=POLY_cond $X=0.495 $Y=1.35
+ $X2=0.495 $Y2=1.515
r113 5 7 312.787 $w=1.5e-07 $l=6.1e-07 $layer=POLY_cond $X=0.495 $Y=1.35
+ $X2=0.495 $Y2=0.74
r114 1 45 16.9318 $w=1.8e-07 $l=1.65e-07 $layer=POLY_cond $X=0.495 $Y=1.68
+ $X2=0.495 $Y2=1.515
r115 1 3 279.871 $w=1.8e-07 $l=7.2e-07 $layer=POLY_cond $X=0.495 $Y=1.68
+ $X2=0.495 $Y2=2.4
.ends

.subckt PM_SKY130_FD_SC_MS__O2BB2AI_4%A2_N 3 7 11 15 19 23 25 29 33 35 36 37 53
c97 29 0 1.04639e-19 $X=3.645 $Y=2.4
c98 3 0 1.9142e-19 $X=2.225 $Y=0.74
r99 52 53 34.561 $w=3.6e-07 $l=9e-08 $layer=POLY_cond $X=3.195 $Y=1.5 $X2=3.285
+ $Y2=1.5
r100 51 52 2.40434 $w=3.6e-07 $l=1.5e-08 $layer=POLY_cond $X=3.18 $Y=1.5
+ $X2=3.195 $Y2=1.5
r101 49 51 17.6318 $w=3.6e-07 $l=1.1e-07 $layer=POLY_cond $X=3.07 $Y=1.5
+ $X2=3.18 $Y2=1.5
r102 49 50 96.8533 $w=1.7e-07 $l=2.55e-07 $layer=licon1_POLY $count=1 $X=3.07
+ $Y=1.515 $X2=3.07 $Y2=1.515
r103 47 49 52.0941 $w=3.6e-07 $l=3.25e-07 $layer=POLY_cond $X=2.745 $Y=1.5
+ $X2=3.07 $Y2=1.5
r104 46 47 14.4261 $w=3.6e-07 $l=9e-08 $layer=POLY_cond $X=2.655 $Y=1.5
+ $X2=2.745 $Y2=1.5
r105 44 46 42.4767 $w=3.6e-07 $l=2.65e-07 $layer=POLY_cond $X=2.39 $Y=1.5
+ $X2=2.655 $Y2=1.5
r106 44 45 96.8533 $w=1.7e-07 $l=2.55e-07 $layer=licon1_POLY $count=1 $X=2.39
+ $Y=1.515 $X2=2.39 $Y2=1.515
r107 42 44 15.2275 $w=3.6e-07 $l=9.5e-08 $layer=POLY_cond $X=2.295 $Y=1.5
+ $X2=2.39 $Y2=1.5
r108 40 42 11.2203 $w=3.6e-07 $l=7e-08 $layer=POLY_cond $X=2.225 $Y=1.5
+ $X2=2.295 $Y2=1.5
r109 37 50 1.34005 $w=4.28e-07 $l=5e-08 $layer=LI1_cond $X=3.12 $Y=1.565
+ $X2=3.07 $Y2=1.565
r110 36 50 11.5244 $w=4.28e-07 $l=4.3e-07 $layer=LI1_cond $X=2.64 $Y=1.565
+ $X2=3.07 $Y2=1.565
r111 36 45 6.70025 $w=4.28e-07 $l=2.5e-07 $layer=LI1_cond $X=2.64 $Y=1.565
+ $X2=2.39 $Y2=1.565
r112 31 35 18.8402 $w=1.65e-07 $l=1e-07 $layer=POLY_cond $X=3.655 $Y=1.32
+ $X2=3.555 $Y2=1.32
r113 31 33 297.404 $w=1.5e-07 $l=5.8e-07 $layer=POLY_cond $X=3.655 $Y=1.32
+ $X2=3.655 $Y2=0.74
r114 27 35 18.8402 $w=1.65e-07 $l=2.81425e-07 $layer=POLY_cond $X=3.645 $Y=1.56
+ $X2=3.555 $Y2=1.32
r115 27 29 326.516 $w=1.8e-07 $l=8.4e-07 $layer=POLY_cond $X=3.645 $Y=1.56
+ $X2=3.645 $Y2=2.4
r116 25 35 6.66866 $w=1.5e-07 $l=7.5e-08 $layer=POLY_cond $X=3.555 $Y=1.395
+ $X2=3.555 $Y2=1.32
r117 25 53 138.447 $w=1.5e-07 $l=2.7e-07 $layer=POLY_cond $X=3.555 $Y=1.395
+ $X2=3.285 $Y2=1.395
r118 21 52 18.9685 $w=1.8e-07 $l=1.8e-07 $layer=POLY_cond $X=3.195 $Y=1.68
+ $X2=3.195 $Y2=1.5
r119 21 23 279.871 $w=1.8e-07 $l=7.2e-07 $layer=POLY_cond $X=3.195 $Y=1.68
+ $X2=3.195 $Y2=2.4
r120 17 51 23.3057 $w=1.5e-07 $l=1.8e-07 $layer=POLY_cond $X=3.18 $Y=1.32
+ $X2=3.18 $Y2=1.5
r121 17 19 297.404 $w=1.5e-07 $l=5.8e-07 $layer=POLY_cond $X=3.18 $Y=1.32
+ $X2=3.18 $Y2=0.74
r122 13 47 18.9685 $w=1.8e-07 $l=1.8e-07 $layer=POLY_cond $X=2.745 $Y=1.68
+ $X2=2.745 $Y2=1.5
r123 13 15 279.871 $w=1.8e-07 $l=7.2e-07 $layer=POLY_cond $X=2.745 $Y=1.68
+ $X2=2.745 $Y2=2.4
r124 9 46 23.3057 $w=1.5e-07 $l=1.8e-07 $layer=POLY_cond $X=2.655 $Y=1.32
+ $X2=2.655 $Y2=1.5
r125 9 11 297.404 $w=1.5e-07 $l=5.8e-07 $layer=POLY_cond $X=2.655 $Y=1.32
+ $X2=2.655 $Y2=0.74
r126 5 42 18.9685 $w=1.8e-07 $l=1.8e-07 $layer=POLY_cond $X=2.295 $Y=1.68
+ $X2=2.295 $Y2=1.5
r127 5 7 279.871 $w=1.8e-07 $l=7.2e-07 $layer=POLY_cond $X=2.295 $Y=1.68
+ $X2=2.295 $Y2=2.4
r128 1 40 23.3057 $w=1.5e-07 $l=1.8e-07 $layer=POLY_cond $X=2.225 $Y=1.32
+ $X2=2.225 $Y2=1.5
r129 1 3 297.404 $w=1.5e-07 $l=5.8e-07 $layer=POLY_cond $X=2.225 $Y=1.32
+ $X2=2.225 $Y2=0.74
.ends

.subckt PM_SKY130_FD_SC_MS__O2BB2AI_4%A_117_368# 1 2 3 4 5 6 21 25 29 33 37 41
+ 45 47 48 51 53 55 57 61 63 67 71 73 74 75 79 83 85 86 92 98 100 102
c207 86 0 1.74044e-19 $X=3.5 $Y=1.95
c208 74 0 8.01953e-20 $X=2.605 $Y=1.095
c209 51 0 1.9142e-19 $X=5.935 $Y=0.74
c210 48 0 1.49198e-19 $X=5.58 $Y=1.375
r211 112 113 9.00935 $w=3.21e-07 $l=6e-08 $layer=POLY_cond $X=5.445 $Y=1.465
+ $X2=5.505 $Y2=1.465
r212 109 110 12.0125 $w=3.21e-07 $l=8e-08 $layer=POLY_cond $X=4.995 $Y=1.465
+ $X2=5.075 $Y2=1.465
r213 108 109 52.5545 $w=3.21e-07 $l=3.5e-07 $layer=POLY_cond $X=4.645 $Y=1.465
+ $X2=4.995 $Y2=1.465
r214 107 108 15.0156 $w=3.21e-07 $l=1e-07 $layer=POLY_cond $X=4.545 $Y=1.465
+ $X2=4.645 $Y2=1.465
r215 93 112 27.7788 $w=3.21e-07 $l=1.85e-07 $layer=POLY_cond $X=5.26 $Y=1.465
+ $X2=5.445 $Y2=1.465
r216 93 110 27.7788 $w=3.21e-07 $l=1.85e-07 $layer=POLY_cond $X=5.26 $Y=1.465
+ $X2=5.075 $Y2=1.465
r217 92 93 72.64 $w=1.7e-07 $l=3.4e-07 $layer=licon1_POLY $count=2 $X=5.26
+ $Y=1.465 $X2=5.26 $Y2=1.465
r218 90 107 45.7975 $w=3.21e-07 $l=3.05e-07 $layer=POLY_cond $X=4.24 $Y=1.465
+ $X2=4.545 $Y2=1.465
r219 90 105 21.7726 $w=3.21e-07 $l=1.45e-07 $layer=POLY_cond $X=4.24 $Y=1.465
+ $X2=4.095 $Y2=1.465
r220 89 92 35.621 $w=3.28e-07 $l=1.02e-06 $layer=LI1_cond $X=4.24 $Y=1.465
+ $X2=5.26 $Y2=1.465
r221 89 90 72.64 $w=1.7e-07 $l=3.4e-07 $layer=licon1_POLY $count=2 $X=4.24
+ $Y=1.465 $X2=4.24 $Y2=1.465
r222 87 103 19.7982 $w=2.28e-07 $l=3.7e-07 $layer=LI1_cond $X=3.44 $Y=1.465
+ $X2=3.44 $Y2=1.095
r223 87 89 22.1758 $w=3.28e-07 $l=6.35e-07 $layer=LI1_cond $X=3.605 $Y=1.465
+ $X2=4.24 $Y2=1.465
r224 86 102 3.70735 $w=2.5e-07 $l=1.18427e-07 $layer=LI1_cond $X=3.5 $Y=1.95
+ $X2=3.42 $Y2=2.035
r225 85 87 9.64481 $w=2.28e-07 $l=1.92678e-07 $layer=LI1_cond $X=3.5 $Y=1.63
+ $X2=3.44 $Y2=1.465
r226 85 86 20.877 $w=1.68e-07 $l=3.2e-07 $layer=LI1_cond $X=3.5 $Y=1.63 $X2=3.5
+ $Y2=1.95
r227 81 103 4.31892 $w=3.3e-07 $l=8.5e-08 $layer=LI1_cond $X=3.44 $Y=1.01
+ $X2=3.44 $Y2=1.095
r228 81 83 5.23838 $w=3.28e-07 $l=1.5e-07 $layer=LI1_cond $X=3.44 $Y=1.01
+ $X2=3.44 $Y2=0.86
r229 77 102 3.70735 $w=2.5e-07 $l=8.5e-08 $layer=LI1_cond $X=3.42 $Y=2.12
+ $X2=3.42 $Y2=2.035
r230 77 79 24.2711 $w=3.28e-07 $l=6.95e-07 $layer=LI1_cond $X=3.42 $Y=2.12
+ $X2=3.42 $Y2=2.815
r231 76 100 8.61065 $w=1.7e-07 $l=1.65e-07 $layer=LI1_cond $X=2.685 $Y=2.035
+ $X2=2.52 $Y2=2.035
r232 75 102 2.76166 $w=1.7e-07 $l=1.65e-07 $layer=LI1_cond $X=3.255 $Y=2.035
+ $X2=3.42 $Y2=2.035
r233 75 76 37.1872 $w=1.68e-07 $l=5.7e-07 $layer=LI1_cond $X=3.255 $Y=2.035
+ $X2=2.685 $Y2=2.035
r234 73 103 2.45823 $w=1.7e-07 $l=1.65e-07 $layer=LI1_cond $X=3.275 $Y=1.095
+ $X2=3.44 $Y2=1.095
r235 73 74 43.7112 $w=1.68e-07 $l=6.7e-07 $layer=LI1_cond $X=3.275 $Y=1.095
+ $X2=2.605 $Y2=1.095
r236 69 100 0.89609 $w=3.3e-07 $l=8.5e-08 $layer=LI1_cond $X=2.52 $Y=2.12
+ $X2=2.52 $Y2=2.035
r237 69 71 24.2711 $w=3.28e-07 $l=6.95e-07 $layer=LI1_cond $X=2.52 $Y=2.12
+ $X2=2.52 $Y2=2.815
r238 65 74 7.76618 $w=1.7e-07 $l=2.03101e-07 $layer=LI1_cond $X=2.44 $Y=1.01
+ $X2=2.605 $Y2=1.095
r239 65 67 6.63528 $w=3.28e-07 $l=1.9e-07 $layer=LI1_cond $X=2.44 $Y=1.01
+ $X2=2.44 $Y2=0.82
r240 64 98 8.61065 $w=1.7e-07 $l=1.65e-07 $layer=LI1_cond $X=1.785 $Y=2.035
+ $X2=1.62 $Y2=2.035
r241 63 100 8.61065 $w=1.7e-07 $l=1.65e-07 $layer=LI1_cond $X=2.355 $Y=2.035
+ $X2=2.52 $Y2=2.035
r242 63 64 37.1872 $w=1.68e-07 $l=5.7e-07 $layer=LI1_cond $X=2.355 $Y=2.035
+ $X2=1.785 $Y2=2.035
r243 59 98 0.89609 $w=3.3e-07 $l=8.5e-08 $layer=LI1_cond $X=1.62 $Y=2.12
+ $X2=1.62 $Y2=2.035
r244 59 61 24.2711 $w=3.28e-07 $l=6.95e-07 $layer=LI1_cond $X=1.62 $Y=2.12
+ $X2=1.62 $Y2=2.815
r245 58 96 5.12568 $w=1.7e-07 $l=1.65e-07 $layer=LI1_cond $X=0.885 $Y=2.035
+ $X2=0.72 $Y2=2.035
r246 57 98 8.61065 $w=1.7e-07 $l=1.65e-07 $layer=LI1_cond $X=1.455 $Y=2.035
+ $X2=1.62 $Y2=2.035
r247 57 58 37.1872 $w=1.68e-07 $l=5.7e-07 $layer=LI1_cond $X=1.455 $Y=2.035
+ $X2=0.885 $Y2=2.035
r248 53 96 2.6405 $w=3.3e-07 $l=8.5e-08 $layer=LI1_cond $X=0.72 $Y=2.12 $X2=0.72
+ $Y2=2.035
r249 53 55 24.2711 $w=3.28e-07 $l=6.95e-07 $layer=LI1_cond $X=0.72 $Y=2.12
+ $X2=0.72 $Y2=2.815
r250 49 51 287.149 $w=1.5e-07 $l=5.6e-07 $layer=POLY_cond $X=5.935 $Y=1.3
+ $X2=5.935 $Y2=0.74
r251 48 113 25.0392 $w=3.21e-07 $l=1.21861e-07 $layer=POLY_cond $X=5.58 $Y=1.375
+ $X2=5.505 $Y2=1.465
r252 47 49 26.9307 $w=1.5e-07 $l=1.06066e-07 $layer=POLY_cond $X=5.86 $Y=1.375
+ $X2=5.935 $Y2=1.3
r253 47 48 143.574 $w=1.5e-07 $l=2.8e-07 $layer=POLY_cond $X=5.86 $Y=1.375
+ $X2=5.58 $Y2=1.375
r254 43 113 20.5661 $w=1.5e-07 $l=1.65e-07 $layer=POLY_cond $X=5.505 $Y=1.3
+ $X2=5.505 $Y2=1.465
r255 43 45 287.149 $w=1.5e-07 $l=5.6e-07 $layer=POLY_cond $X=5.505 $Y=1.3
+ $X2=5.505 $Y2=0.74
r256 39 112 16.2883 $w=1.8e-07 $l=1.65e-07 $layer=POLY_cond $X=5.445 $Y=1.63
+ $X2=5.445 $Y2=1.465
r257 39 41 299.306 $w=1.8e-07 $l=7.7e-07 $layer=POLY_cond $X=5.445 $Y=1.63
+ $X2=5.445 $Y2=2.4
r258 35 110 20.5661 $w=1.5e-07 $l=1.65e-07 $layer=POLY_cond $X=5.075 $Y=1.3
+ $X2=5.075 $Y2=1.465
r259 35 37 287.149 $w=1.5e-07 $l=5.6e-07 $layer=POLY_cond $X=5.075 $Y=1.3
+ $X2=5.075 $Y2=0.74
r260 31 109 16.2883 $w=1.8e-07 $l=1.65e-07 $layer=POLY_cond $X=4.995 $Y=1.63
+ $X2=4.995 $Y2=1.465
r261 31 33 299.306 $w=1.8e-07 $l=7.7e-07 $layer=POLY_cond $X=4.995 $Y=1.63
+ $X2=4.995 $Y2=2.4
r262 27 108 20.5661 $w=1.5e-07 $l=1.65e-07 $layer=POLY_cond $X=4.645 $Y=1.3
+ $X2=4.645 $Y2=1.465
r263 27 29 287.149 $w=1.5e-07 $l=5.6e-07 $layer=POLY_cond $X=4.645 $Y=1.3
+ $X2=4.645 $Y2=0.74
r264 23 107 16.2883 $w=1.8e-07 $l=1.65e-07 $layer=POLY_cond $X=4.545 $Y=1.63
+ $X2=4.545 $Y2=1.465
r265 23 25 299.306 $w=1.8e-07 $l=7.7e-07 $layer=POLY_cond $X=4.545 $Y=1.63
+ $X2=4.545 $Y2=2.4
r266 19 105 16.2883 $w=1.8e-07 $l=1.65e-07 $layer=POLY_cond $X=4.095 $Y=1.63
+ $X2=4.095 $Y2=1.465
r267 19 21 299.306 $w=1.8e-07 $l=7.7e-07 $layer=POLY_cond $X=4.095 $Y=1.63
+ $X2=4.095 $Y2=2.4
r268 6 102 400 $w=1.7e-07 $l=2.53673e-07 $layer=licon1_PDIFF $count=1 $X=3.285
+ $Y=1.84 $X2=3.42 $Y2=2.035
r269 6 79 400 $w=1.7e-07 $l=1.04031e-06 $layer=licon1_PDIFF $count=1 $X=3.285
+ $Y=1.84 $X2=3.42 $Y2=2.815
r270 5 100 400 $w=1.7e-07 $l=2.53673e-07 $layer=licon1_PDIFF $count=1 $X=2.385
+ $Y=1.84 $X2=2.52 $Y2=2.035
r271 5 71 400 $w=1.7e-07 $l=1.04031e-06 $layer=licon1_PDIFF $count=1 $X=2.385
+ $Y=1.84 $X2=2.52 $Y2=2.815
r272 4 98 400 $w=1.7e-07 $l=2.53673e-07 $layer=licon1_PDIFF $count=1 $X=1.485
+ $Y=1.84 $X2=1.62 $Y2=2.035
r273 4 61 400 $w=1.7e-07 $l=1.04031e-06 $layer=licon1_PDIFF $count=1 $X=1.485
+ $Y=1.84 $X2=1.62 $Y2=2.815
r274 3 96 400 $w=1.7e-07 $l=2.53673e-07 $layer=licon1_PDIFF $count=1 $X=0.585
+ $Y=1.84 $X2=0.72 $Y2=2.035
r275 3 55 400 $w=1.7e-07 $l=1.04031e-06 $layer=licon1_PDIFF $count=1 $X=0.585
+ $Y=1.84 $X2=0.72 $Y2=2.815
r276 2 83 182 $w=1.7e-07 $l=5.75109e-07 $layer=licon1_NDIFF $count=1 $X=3.255
+ $Y=0.37 $X2=3.44 $Y2=0.86
r277 1 67 182 $w=1.7e-07 $l=5.15267e-07 $layer=licon1_NDIFF $count=1 $X=2.3
+ $Y=0.37 $X2=2.44 $Y2=0.82
.ends

.subckt PM_SKY130_FD_SC_MS__O2BB2AI_4%B2 3 7 11 15 19 23 27 31 33 34 35 36 53 55
c90 27 0 1.84271e-19 $X=7.785 $Y=2.4
c91 3 0 2.29387e-19 $X=6.365 $Y=0.74
r92 54 55 1.74861 $w=3.3e-07 $l=1e-08 $layer=POLY_cond $X=7.785 $Y=1.515
+ $X2=7.795 $Y2=1.515
r93 52 54 54.207 $w=3.3e-07 $l=3.1e-07 $layer=POLY_cond $X=7.475 $Y=1.515
+ $X2=7.785 $Y2=1.515
r94 52 53 72.64 $w=1.7e-07 $l=3.4e-07 $layer=licon1_POLY $count=2 $X=7.475
+ $Y=1.515 $X2=7.475 $Y2=1.515
r95 50 52 24.4806 $w=3.3e-07 $l=1.4e-07 $layer=POLY_cond $X=7.335 $Y=1.515
+ $X2=7.475 $Y2=1.515
r96 49 50 6.99445 $w=3.3e-07 $l=4e-08 $layer=POLY_cond $X=7.295 $Y=1.515
+ $X2=7.335 $Y2=1.515
r97 48 49 71.6931 $w=3.3e-07 $l=4.1e-07 $layer=POLY_cond $X=6.885 $Y=1.515
+ $X2=7.295 $Y2=1.515
r98 47 48 3.49723 $w=3.3e-07 $l=2e-08 $layer=POLY_cond $X=6.865 $Y=1.515
+ $X2=6.885 $Y2=1.515
r99 45 47 71.6931 $w=3.3e-07 $l=4.1e-07 $layer=POLY_cond $X=6.455 $Y=1.515
+ $X2=6.865 $Y2=1.515
r100 45 46 72.64 $w=1.7e-07 $l=3.4e-07 $layer=licon1_POLY $count=2 $X=6.455
+ $Y=1.515 $X2=6.455 $Y2=1.515
r101 43 45 3.49723 $w=3.3e-07 $l=2e-08 $layer=POLY_cond $X=6.435 $Y=1.515
+ $X2=6.455 $Y2=1.515
r102 41 43 12.2403 $w=3.3e-07 $l=7e-08 $layer=POLY_cond $X=6.365 $Y=1.515
+ $X2=6.435 $Y2=1.515
r103 36 53 0.938035 $w=4.28e-07 $l=3.5e-08 $layer=LI1_cond $X=7.44 $Y=1.565
+ $X2=7.475 $Y2=1.565
r104 35 36 12.8645 $w=4.28e-07 $l=4.8e-07 $layer=LI1_cond $X=6.96 $Y=1.565
+ $X2=7.44 $Y2=1.565
r105 34 35 12.8645 $w=4.28e-07 $l=4.8e-07 $layer=LI1_cond $X=6.48 $Y=1.565
+ $X2=6.96 $Y2=1.565
r106 34 46 0.670025 $w=4.28e-07 $l=2.5e-08 $layer=LI1_cond $X=6.48 $Y=1.565
+ $X2=6.455 $Y2=1.565
r107 33 46 12.1945 $w=4.28e-07 $l=4.55e-07 $layer=LI1_cond $X=6 $Y=1.565
+ $X2=6.455 $Y2=1.565
r108 29 55 21.2229 $w=1.5e-07 $l=1.65e-07 $layer=POLY_cond $X=7.795 $Y=1.35
+ $X2=7.795 $Y2=1.515
r109 29 31 312.787 $w=1.5e-07 $l=6.1e-07 $layer=POLY_cond $X=7.795 $Y=1.35
+ $X2=7.795 $Y2=0.74
r110 25 54 16.9318 $w=1.8e-07 $l=1.65e-07 $layer=POLY_cond $X=7.785 $Y=1.68
+ $X2=7.785 $Y2=1.515
r111 25 27 279.871 $w=1.8e-07 $l=7.2e-07 $layer=POLY_cond $X=7.785 $Y=1.68
+ $X2=7.785 $Y2=2.4
r112 21 50 16.9318 $w=1.8e-07 $l=1.65e-07 $layer=POLY_cond $X=7.335 $Y=1.68
+ $X2=7.335 $Y2=1.515
r113 21 23 279.871 $w=1.8e-07 $l=7.2e-07 $layer=POLY_cond $X=7.335 $Y=1.68
+ $X2=7.335 $Y2=2.4
r114 17 49 21.2229 $w=1.5e-07 $l=1.65e-07 $layer=POLY_cond $X=7.295 $Y=1.35
+ $X2=7.295 $Y2=1.515
r115 17 19 312.787 $w=1.5e-07 $l=6.1e-07 $layer=POLY_cond $X=7.295 $Y=1.35
+ $X2=7.295 $Y2=0.74
r116 13 48 16.9318 $w=1.8e-07 $l=1.65e-07 $layer=POLY_cond $X=6.885 $Y=1.68
+ $X2=6.885 $Y2=1.515
r117 13 15 279.871 $w=1.8e-07 $l=7.2e-07 $layer=POLY_cond $X=6.885 $Y=1.68
+ $X2=6.885 $Y2=2.4
r118 9 47 21.2229 $w=1.5e-07 $l=1.65e-07 $layer=POLY_cond $X=6.865 $Y=1.35
+ $X2=6.865 $Y2=1.515
r119 9 11 312.787 $w=1.5e-07 $l=6.1e-07 $layer=POLY_cond $X=6.865 $Y=1.35
+ $X2=6.865 $Y2=0.74
r120 5 43 16.9318 $w=1.8e-07 $l=1.65e-07 $layer=POLY_cond $X=6.435 $Y=1.68
+ $X2=6.435 $Y2=1.515
r121 5 7 279.871 $w=1.8e-07 $l=7.2e-07 $layer=POLY_cond $X=6.435 $Y=1.68
+ $X2=6.435 $Y2=2.4
r122 1 41 21.2229 $w=1.5e-07 $l=1.65e-07 $layer=POLY_cond $X=6.365 $Y=1.35
+ $X2=6.365 $Y2=1.515
r123 1 3 312.787 $w=1.5e-07 $l=6.1e-07 $layer=POLY_cond $X=6.365 $Y=1.35
+ $X2=6.365 $Y2=0.74
.ends

.subckt PM_SKY130_FD_SC_MS__O2BB2AI_4%B1 3 7 11 15 19 23 27 31 33 34 35 36 50
r81 52 53 58.112 $w=1.7e-07 $l=4.25e-07 $layer=licon1_POLY $count=2 $X=9.675
+ $Y=1.515 $X2=9.675 $Y2=1.515
r82 50 52 13.1854 $w=3.29e-07 $l=9e-08 $layer=POLY_cond $X=9.585 $Y=1.515
+ $X2=9.675 $Y2=1.515
r83 49 50 65.9271 $w=3.29e-07 $l=4.5e-07 $layer=POLY_cond $X=9.135 $Y=1.515
+ $X2=9.585 $Y2=1.515
r84 48 49 7.32523 $w=3.29e-07 $l=5e-08 $layer=POLY_cond $X=9.085 $Y=1.515
+ $X2=9.135 $Y2=1.515
r85 47 48 58.6018 $w=3.29e-07 $l=4e-07 $layer=POLY_cond $X=8.685 $Y=1.515
+ $X2=9.085 $Y2=1.515
r86 46 47 4.39514 $w=3.29e-07 $l=3e-08 $layer=POLY_cond $X=8.655 $Y=1.515
+ $X2=8.685 $Y2=1.515
r87 44 46 49.8116 $w=3.29e-07 $l=3.4e-07 $layer=POLY_cond $X=8.315 $Y=1.515
+ $X2=8.655 $Y2=1.515
r88 44 45 58.112 $w=1.7e-07 $l=4.25e-07 $layer=licon1_POLY $count=2 $X=8.315
+ $Y=1.515 $X2=8.315 $Y2=1.515
r89 42 44 11.7204 $w=3.29e-07 $l=8e-08 $layer=POLY_cond $X=8.235 $Y=1.515
+ $X2=8.315 $Y2=1.515
r90 41 42 1.46505 $w=3.29e-07 $l=1e-08 $layer=POLY_cond $X=8.225 $Y=1.515
+ $X2=8.235 $Y2=1.515
r91 36 53 4.42216 $w=4.28e-07 $l=1.65e-07 $layer=LI1_cond $X=9.84 $Y=1.565
+ $X2=9.675 $Y2=1.565
r92 35 53 8.44232 $w=4.28e-07 $l=3.15e-07 $layer=LI1_cond $X=9.36 $Y=1.565
+ $X2=9.675 $Y2=1.565
r93 34 35 12.8645 $w=4.28e-07 $l=4.8e-07 $layer=LI1_cond $X=8.88 $Y=1.565
+ $X2=9.36 $Y2=1.565
r94 33 34 12.8645 $w=4.28e-07 $l=4.8e-07 $layer=LI1_cond $X=8.4 $Y=1.565
+ $X2=8.88 $Y2=1.565
r95 33 45 2.27808 $w=4.28e-07 $l=8.5e-08 $layer=LI1_cond $X=8.4 $Y=1.565
+ $X2=8.315 $Y2=1.565
r96 29 50 21.1507 $w=1.5e-07 $l=1.65e-07 $layer=POLY_cond $X=9.585 $Y=1.35
+ $X2=9.585 $Y2=1.515
r97 29 31 312.787 $w=1.5e-07 $l=6.1e-07 $layer=POLY_cond $X=9.585 $Y=1.35
+ $X2=9.585 $Y2=0.74
r98 25 50 16.8611 $w=1.8e-07 $l=1.65e-07 $layer=POLY_cond $X=9.585 $Y=1.68
+ $X2=9.585 $Y2=1.515
r99 25 27 279.871 $w=1.8e-07 $l=7.2e-07 $layer=POLY_cond $X=9.585 $Y=1.68
+ $X2=9.585 $Y2=2.4
r100 21 49 16.8611 $w=1.8e-07 $l=1.65e-07 $layer=POLY_cond $X=9.135 $Y=1.68
+ $X2=9.135 $Y2=1.515
r101 21 23 279.871 $w=1.8e-07 $l=7.2e-07 $layer=POLY_cond $X=9.135 $Y=1.68
+ $X2=9.135 $Y2=2.4
r102 17 48 21.1507 $w=1.5e-07 $l=1.65e-07 $layer=POLY_cond $X=9.085 $Y=1.35
+ $X2=9.085 $Y2=1.515
r103 17 19 312.787 $w=1.5e-07 $l=6.1e-07 $layer=POLY_cond $X=9.085 $Y=1.35
+ $X2=9.085 $Y2=0.74
r104 13 47 16.8611 $w=1.8e-07 $l=1.65e-07 $layer=POLY_cond $X=8.685 $Y=1.68
+ $X2=8.685 $Y2=1.515
r105 13 15 279.871 $w=1.8e-07 $l=7.2e-07 $layer=POLY_cond $X=8.685 $Y=1.68
+ $X2=8.685 $Y2=2.4
r106 9 46 21.1507 $w=1.5e-07 $l=1.65e-07 $layer=POLY_cond $X=8.655 $Y=1.35
+ $X2=8.655 $Y2=1.515
r107 9 11 312.787 $w=1.5e-07 $l=6.1e-07 $layer=POLY_cond $X=8.655 $Y=1.35
+ $X2=8.655 $Y2=0.74
r108 5 41 21.1507 $w=1.5e-07 $l=1.65e-07 $layer=POLY_cond $X=8.225 $Y=1.35
+ $X2=8.225 $Y2=1.515
r109 5 7 312.787 $w=1.5e-07 $l=6.1e-07 $layer=POLY_cond $X=8.225 $Y=1.35
+ $X2=8.225 $Y2=0.74
r110 1 42 16.8611 $w=1.8e-07 $l=1.65e-07 $layer=POLY_cond $X=8.235 $Y=1.68
+ $X2=8.235 $Y2=1.515
r111 1 3 279.871 $w=1.8e-07 $l=7.2e-07 $layer=POLY_cond $X=8.235 $Y=1.68
+ $X2=8.235 $Y2=2.4
.ends

.subckt PM_SKY130_FD_SC_MS__O2BB2AI_4%VPWR 1 2 3 4 5 6 7 8 9 28 30 36 40 44 48
+ 54 56 60 64 68 71 72 74 75 77 78 80 81 82 83 84 102 110 117 118 124 127 130
c150 64 0 1.84271e-19 $X=8.46 $Y=2.455
r151 130 131 9.3 $w=1.7e-07 $l=1.7e-07 $layer=mcon $count=1 $X=9.36 $Y=3.33
+ $X2=9.36 $Y2=3.33
r152 127 128 9.3 $w=1.7e-07 $l=1.7e-07 $layer=mcon $count=1 $X=8.4 $Y=3.33
+ $X2=8.4 $Y2=3.33
r153 124 125 4.65 $w=1.7e-07 $l=3.4e-07 $layer=mcon $count=2 $X=5.52 $Y=3.33
+ $X2=5.52 $Y2=3.33
r154 121 122 9.3 $w=1.7e-07 $l=1.7e-07 $layer=mcon $count=1 $X=0.24 $Y=3.33
+ $X2=0.24 $Y2=3.33
r155 118 131 0.133793 $w=4.9e-07 $l=4.8e-07 $layer=MET1_cond $X=9.84 $Y=3.33
+ $X2=9.36 $Y2=3.33
r156 117 118 9.3 $w=1.7e-07 $l=1.7e-07 $layer=mcon $count=1 $X=9.84 $Y=3.33
+ $X2=9.84 $Y2=3.33
r157 115 130 6.01921 $w=1.7e-07 $l=1.03e-07 $layer=LI1_cond $X=9.465 $Y=3.33
+ $X2=9.362 $Y2=3.33
r158 115 117 24.4652 $w=1.68e-07 $l=3.75e-07 $layer=LI1_cond $X=9.465 $Y=3.33
+ $X2=9.84 $Y2=3.33
r159 114 131 0.133793 $w=4.9e-07 $l=4.8e-07 $layer=MET1_cond $X=8.88 $Y=3.33
+ $X2=9.36 $Y2=3.33
r160 114 128 0.133793 $w=4.9e-07 $l=4.8e-07 $layer=MET1_cond $X=8.88 $Y=3.33
+ $X2=8.4 $Y2=3.33
r161 113 114 9.3 $w=1.7e-07 $l=1.7e-07 $layer=mcon $count=1 $X=8.88 $Y=3.33
+ $X2=8.88 $Y2=3.33
r162 111 127 7.34436 $w=1.7e-07 $l=1.33e-07 $layer=LI1_cond $X=8.56 $Y=3.33
+ $X2=8.427 $Y2=3.33
r163 111 113 20.877 $w=1.68e-07 $l=3.2e-07 $layer=LI1_cond $X=8.56 $Y=3.33
+ $X2=8.88 $Y2=3.33
r164 110 130 6.01921 $w=1.7e-07 $l=1.02e-07 $layer=LI1_cond $X=9.26 $Y=3.33
+ $X2=9.362 $Y2=3.33
r165 110 113 24.7914 $w=1.68e-07 $l=3.8e-07 $layer=LI1_cond $X=9.26 $Y=3.33
+ $X2=8.88 $Y2=3.33
r166 109 128 0.133793 $w=4.9e-07 $l=4.8e-07 $layer=MET1_cond $X=7.92 $Y=3.33
+ $X2=8.4 $Y2=3.33
r167 108 109 3.72 $w=1.7e-07 $l=4.25e-07 $layer=mcon $count=2 $X=7.92 $Y=3.33
+ $X2=7.92 $Y2=3.33
r168 106 109 0.535171 $w=4.9e-07 $l=1.92e-06 $layer=MET1_cond $X=6 $Y=3.33
+ $X2=7.92 $Y2=3.33
r169 106 125 0.133793 $w=4.9e-07 $l=4.8e-07 $layer=MET1_cond $X=6 $Y=3.33
+ $X2=5.52 $Y2=3.33
r170 105 108 125.262 $w=1.68e-07 $l=1.92e-06 $layer=LI1_cond $X=6 $Y=3.33
+ $X2=7.92 $Y2=3.33
r171 105 106 3.72 $w=1.7e-07 $l=4.25e-07 $layer=mcon $count=2 $X=6 $Y=3.33 $X2=6
+ $Y2=3.33
r172 103 124 8.61065 $w=1.7e-07 $l=1.65e-07 $layer=LI1_cond $X=5.835 $Y=3.33
+ $X2=5.67 $Y2=3.33
r173 103 105 10.7647 $w=1.68e-07 $l=1.65e-07 $layer=LI1_cond $X=5.835 $Y=3.33
+ $X2=6 $Y2=3.33
r174 102 127 7.34436 $w=1.7e-07 $l=1.32e-07 $layer=LI1_cond $X=8.295 $Y=3.33
+ $X2=8.427 $Y2=3.33
r175 102 108 24.4652 $w=1.68e-07 $l=3.75e-07 $layer=LI1_cond $X=8.295 $Y=3.33
+ $X2=7.92 $Y2=3.33
r176 100 101 4.65 $w=1.7e-07 $l=3.4e-07 $layer=mcon $count=2 $X=4.56 $Y=3.33
+ $X2=4.56 $Y2=3.33
r177 98 101 0.267585 $w=4.9e-07 $l=9.6e-07 $layer=MET1_cond $X=3.6 $Y=3.33
+ $X2=4.56 $Y2=3.33
r178 97 98 4.65 $w=1.7e-07 $l=3.4e-07 $layer=mcon $count=2 $X=3.6 $Y=3.33
+ $X2=3.6 $Y2=3.33
r179 95 98 0.267585 $w=4.9e-07 $l=9.6e-07 $layer=MET1_cond $X=2.64 $Y=3.33
+ $X2=3.6 $Y2=3.33
r180 94 95 4.65 $w=1.7e-07 $l=3.4e-07 $layer=mcon $count=2 $X=2.64 $Y=3.33
+ $X2=2.64 $Y2=3.33
r181 92 95 0.267585 $w=4.9e-07 $l=9.6e-07 $layer=MET1_cond $X=1.68 $Y=3.33
+ $X2=2.64 $Y2=3.33
r182 91 92 4.65 $w=1.7e-07 $l=3.4e-07 $layer=mcon $count=2 $X=1.68 $Y=3.33
+ $X2=1.68 $Y2=3.33
r183 89 92 0.267585 $w=4.9e-07 $l=9.6e-07 $layer=MET1_cond $X=0.72 $Y=3.33
+ $X2=1.68 $Y2=3.33
r184 89 122 0.133793 $w=4.9e-07 $l=4.8e-07 $layer=MET1_cond $X=0.72 $Y=3.33
+ $X2=0.24 $Y2=3.33
r185 88 89 9.3 $w=1.7e-07 $l=1.7e-07 $layer=mcon $count=1 $X=0.72 $Y=3.33
+ $X2=0.72 $Y2=3.33
r186 86 121 4.02368 $w=1.7e-07 $l=1.78e-07 $layer=LI1_cond $X=0.355 $Y=3.33
+ $X2=0.177 $Y2=3.33
r187 86 88 23.8128 $w=1.68e-07 $l=3.65e-07 $layer=LI1_cond $X=0.355 $Y=3.33
+ $X2=0.72 $Y2=3.33
r188 84 125 0.133793 $w=4.9e-07 $l=4.8e-07 $layer=MET1_cond $X=5.04 $Y=3.33
+ $X2=5.52 $Y2=3.33
r189 84 101 0.133793 $w=4.9e-07 $l=4.8e-07 $layer=MET1_cond $X=5.04 $Y=3.33
+ $X2=4.56 $Y2=3.33
r190 82 100 8.15508 $w=1.68e-07 $l=1.25e-07 $layer=LI1_cond $X=4.685 $Y=3.33
+ $X2=4.56 $Y2=3.33
r191 82 83 5.16603 $w=1.7e-07 $l=8.5e-08 $layer=LI1_cond $X=4.685 $Y=3.33
+ $X2=4.77 $Y2=3.33
r192 80 97 12.0695 $w=1.68e-07 $l=1.85e-07 $layer=LI1_cond $X=3.785 $Y=3.33
+ $X2=3.6 $Y2=3.33
r193 80 81 5.16603 $w=1.7e-07 $l=8.5e-08 $layer=LI1_cond $X=3.785 $Y=3.33
+ $X2=3.87 $Y2=3.33
r194 79 100 39.4706 $w=1.68e-07 $l=6.05e-07 $layer=LI1_cond $X=3.955 $Y=3.33
+ $X2=4.56 $Y2=3.33
r195 79 81 5.16603 $w=1.7e-07 $l=8.5e-08 $layer=LI1_cond $X=3.955 $Y=3.33
+ $X2=3.87 $Y2=3.33
r196 77 94 15.984 $w=1.68e-07 $l=2.45e-07 $layer=LI1_cond $X=2.885 $Y=3.33
+ $X2=2.64 $Y2=3.33
r197 77 78 5.16603 $w=1.7e-07 $l=8.5e-08 $layer=LI1_cond $X=2.885 $Y=3.33
+ $X2=2.97 $Y2=3.33
r198 76 97 35.5561 $w=1.68e-07 $l=5.45e-07 $layer=LI1_cond $X=3.055 $Y=3.33
+ $X2=3.6 $Y2=3.33
r199 76 78 5.16603 $w=1.7e-07 $l=8.5e-08 $layer=LI1_cond $X=3.055 $Y=3.33
+ $X2=2.97 $Y2=3.33
r200 74 91 19.8984 $w=1.68e-07 $l=3.05e-07 $layer=LI1_cond $X=1.985 $Y=3.33
+ $X2=1.68 $Y2=3.33
r201 74 75 5.16603 $w=1.7e-07 $l=8.5e-08 $layer=LI1_cond $X=1.985 $Y=3.33
+ $X2=2.07 $Y2=3.33
r202 73 94 31.6417 $w=1.68e-07 $l=4.85e-07 $layer=LI1_cond $X=2.155 $Y=3.33
+ $X2=2.64 $Y2=3.33
r203 73 75 5.16603 $w=1.7e-07 $l=8.5e-08 $layer=LI1_cond $X=2.155 $Y=3.33
+ $X2=2.07 $Y2=3.33
r204 71 88 23.8128 $w=1.68e-07 $l=3.65e-07 $layer=LI1_cond $X=1.085 $Y=3.33
+ $X2=0.72 $Y2=3.33
r205 71 72 5.16603 $w=1.7e-07 $l=8.5e-08 $layer=LI1_cond $X=1.085 $Y=3.33
+ $X2=1.17 $Y2=3.33
r206 70 91 27.7273 $w=1.68e-07 $l=4.25e-07 $layer=LI1_cond $X=1.255 $Y=3.33
+ $X2=1.68 $Y2=3.33
r207 70 72 5.16603 $w=1.7e-07 $l=8.5e-08 $layer=LI1_cond $X=1.255 $Y=3.33
+ $X2=1.17 $Y2=3.33
r208 66 130 0.677923 $w=2.05e-07 $l=8.5e-08 $layer=LI1_cond $X=9.362 $Y=3.245
+ $X2=9.362 $Y2=3.33
r209 66 68 42.7406 $w=2.03e-07 $l=7.9e-07 $layer=LI1_cond $X=9.362 $Y=3.245
+ $X2=9.362 $Y2=2.455
r210 62 127 0.195364 $w=2.65e-07 $l=8.5e-08 $layer=LI1_cond $X=8.427 $Y=3.245
+ $X2=8.427 $Y2=3.33
r211 62 64 34.3558 $w=2.63e-07 $l=7.9e-07 $layer=LI1_cond $X=8.427 $Y=3.245
+ $X2=8.427 $Y2=2.455
r212 58 124 0.89609 $w=3.3e-07 $l=8.5e-08 $layer=LI1_cond $X=5.67 $Y=3.245
+ $X2=5.67 $Y2=3.33
r213 58 60 29.3349 $w=3.28e-07 $l=8.4e-07 $layer=LI1_cond $X=5.67 $Y=3.245
+ $X2=5.67 $Y2=2.405
r214 57 83 5.16603 $w=1.7e-07 $l=8.5e-08 $layer=LI1_cond $X=4.855 $Y=3.33
+ $X2=4.77 $Y2=3.33
r215 56 124 8.61065 $w=1.7e-07 $l=1.65e-07 $layer=LI1_cond $X=5.505 $Y=3.33
+ $X2=5.67 $Y2=3.33
r216 56 57 42.4064 $w=1.68e-07 $l=6.5e-07 $layer=LI1_cond $X=5.505 $Y=3.33
+ $X2=4.855 $Y2=3.33
r217 52 83 1.34256 $w=1.7e-07 $l=8.5e-08 $layer=LI1_cond $X=4.77 $Y=3.245
+ $X2=4.77 $Y2=3.33
r218 52 54 61.3262 $w=1.68e-07 $l=9.4e-07 $layer=LI1_cond $X=4.77 $Y=3.245
+ $X2=4.77 $Y2=2.305
r219 48 51 54.1497 $w=1.68e-07 $l=8.3e-07 $layer=LI1_cond $X=3.87 $Y=1.985
+ $X2=3.87 $Y2=2.815
r220 46 81 1.34256 $w=1.7e-07 $l=8.5e-08 $layer=LI1_cond $X=3.87 $Y=3.245
+ $X2=3.87 $Y2=3.33
r221 46 51 28.0535 $w=1.68e-07 $l=4.3e-07 $layer=LI1_cond $X=3.87 $Y=3.245
+ $X2=3.87 $Y2=2.815
r222 42 78 1.34256 $w=1.7e-07 $l=8.5e-08 $layer=LI1_cond $X=2.97 $Y=3.245
+ $X2=2.97 $Y2=3.33
r223 42 44 51.5401 $w=1.68e-07 $l=7.9e-07 $layer=LI1_cond $X=2.97 $Y=3.245
+ $X2=2.97 $Y2=2.455
r224 38 75 1.34256 $w=1.7e-07 $l=8.5e-08 $layer=LI1_cond $X=2.07 $Y=3.245
+ $X2=2.07 $Y2=3.33
r225 38 40 51.5401 $w=1.68e-07 $l=7.9e-07 $layer=LI1_cond $X=2.07 $Y=3.245
+ $X2=2.07 $Y2=2.455
r226 34 72 1.34256 $w=1.7e-07 $l=8.5e-08 $layer=LI1_cond $X=1.17 $Y=3.245
+ $X2=1.17 $Y2=3.33
r227 34 36 51.5401 $w=1.68e-07 $l=7.9e-07 $layer=LI1_cond $X=1.17 $Y=3.245
+ $X2=1.17 $Y2=2.455
r228 30 33 32.2684 $w=2.48e-07 $l=7e-07 $layer=LI1_cond $X=0.23 $Y=2.115
+ $X2=0.23 $Y2=2.815
r229 28 121 3.11948 $w=2.5e-07 $l=1.08305e-07 $layer=LI1_cond $X=0.23 $Y=3.245
+ $X2=0.177 $Y2=3.33
r230 28 33 19.822 $w=2.48e-07 $l=4.3e-07 $layer=LI1_cond $X=0.23 $Y=3.245
+ $X2=0.23 $Y2=2.815
r231 9 68 300 $w=1.7e-07 $l=6.79154e-07 $layer=licon1_PDIFF $count=2 $X=9.225
+ $Y=1.84 $X2=9.36 $Y2=2.455
r232 8 64 300 $w=1.7e-07 $l=6.79154e-07 $layer=licon1_PDIFF $count=2 $X=8.325
+ $Y=1.84 $X2=8.46 $Y2=2.455
r233 7 60 300 $w=1.7e-07 $l=6.28888e-07 $layer=licon1_PDIFF $count=2 $X=5.535
+ $Y=1.84 $X2=5.67 $Y2=2.405
r234 6 54 300 $w=1.7e-07 $l=5.28205e-07 $layer=licon1_PDIFF $count=2 $X=4.635
+ $Y=1.84 $X2=4.77 $Y2=2.305
r235 5 51 400 $w=1.7e-07 $l=1.04031e-06 $layer=licon1_PDIFF $count=1 $X=3.735
+ $Y=1.84 $X2=3.87 $Y2=2.815
r236 5 48 400 $w=1.7e-07 $l=2.01494e-07 $layer=licon1_PDIFF $count=1 $X=3.735
+ $Y=1.84 $X2=3.87 $Y2=1.985
r237 4 44 300 $w=1.7e-07 $l=6.79154e-07 $layer=licon1_PDIFF $count=2 $X=2.835
+ $Y=1.84 $X2=2.97 $Y2=2.455
r238 3 40 300 $w=1.7e-07 $l=6.79154e-07 $layer=licon1_PDIFF $count=2 $X=1.935
+ $Y=1.84 $X2=2.07 $Y2=2.455
r239 2 36 300 $w=1.7e-07 $l=6.79154e-07 $layer=licon1_PDIFF $count=2 $X=1.035
+ $Y=1.84 $X2=1.17 $Y2=2.455
r240 1 33 400 $w=1.7e-07 $l=1.04031e-06 $layer=licon1_PDIFF $count=1 $X=0.135
+ $Y=1.84 $X2=0.27 $Y2=2.815
r241 1 30 400 $w=1.7e-07 $l=3.35783e-07 $layer=licon1_PDIFF $count=1 $X=0.135
+ $Y=1.84 $X2=0.27 $Y2=2.115
.ends

.subckt PM_SKY130_FD_SC_MS__O2BB2AI_4%Y 1 2 3 4 5 6 21 25 26 29 31 32 35 39 42
+ 43 44 47 51 53 55 56
c108 51 0 4.3658e-20 $X=5.715 $Y=1.045
c109 42 0 1.85729e-19 $X=5.63 $Y=1.8
c110 26 0 1.04639e-19 $X=4.485 $Y=1.885
r111 58 60 1.4104 $w=3.46e-07 $l=4e-08 $layer=LI1_cond $X=5.18 $Y=1.975 $X2=5.22
+ $Y2=1.975
r112 56 63 3.87861 $w=3.46e-07 $l=1.1e-07 $layer=LI1_cond $X=5.52 $Y=1.975
+ $X2=5.63 $Y2=1.975
r113 56 60 10.578 $w=3.46e-07 $l=3e-07 $layer=LI1_cond $X=5.52 $Y=1.975 $X2=5.22
+ $Y2=1.975
r114 48 53 8.61065 $w=1.7e-07 $l=1.65e-07 $layer=LI1_cond $X=6.825 $Y=2.035
+ $X2=6.66 $Y2=2.035
r115 47 55 5.12568 $w=1.7e-07 $l=1.65e-07 $layer=LI1_cond $X=7.395 $Y=2.035
+ $X2=7.56 $Y2=2.035
r116 47 48 37.1872 $w=1.68e-07 $l=5.7e-07 $layer=LI1_cond $X=7.395 $Y=2.035
+ $X2=6.825 $Y2=2.035
r117 44 63 6.15745 $w=3.46e-07 $l=1.11018e-07 $layer=LI1_cond $X=5.715 $Y=2.035
+ $X2=5.63 $Y2=1.975
r118 43 53 8.61065 $w=1.7e-07 $l=1.65e-07 $layer=LI1_cond $X=6.495 $Y=2.035
+ $X2=6.66 $Y2=2.035
r119 43 44 50.8877 $w=1.68e-07 $l=7.8e-07 $layer=LI1_cond $X=6.495 $Y=2.035
+ $X2=5.715 $Y2=2.035
r120 42 63 4.90539 $w=1.7e-07 $l=1.75e-07 $layer=LI1_cond $X=5.63 $Y=1.8
+ $X2=5.63 $Y2=1.975
r121 41 51 3.64284 $w=2.55e-07 $l=1.20208e-07 $layer=LI1_cond $X=5.63 $Y=1.13