* File: sky130_fd_sc_ms__sdfbbn_2.pex.spice
* Created: Wed Sep  2 12:29:59 2020
* Program "Calibre xRC"
* Version "v2018.4_34.26"
* Nominal Temperature: 27C
* Circuit Temperature: 27C
* 
.subckt PM_SKY130_FD_SC_MS__SDFBBN_2%SCD 2 5 9 10 11 15 16 17 19
r31 19 21 39.5669 $w=3.75e-07 $l=1.65e-07 $layer=POLY_cond $X=0.407 $Y=1.97
+ $X2=0.407 $Y2=2.135
r32 19 20 96.8533 $w=1.7e-07 $l=2.55e-07 $layer=licon1_POLY $count=1 $X=0.385
+ $Y=1.97 $X2=0.385 $Y2=1.97
r33 15 17 45.1558 $w=3.75e-07 $l=1.65e-07 $layer=POLY_cond $X=0.407 $Y=1.29
+ $X2=0.407 $Y2=1.125
r34 15 16 96.8533 $w=1.7e-07 $l=2.55e-07 $layer=licon1_POLY $count=1 $X=0.385
+ $Y=1.29 $X2=0.385 $Y2=1.29
r35 11 20 8.27047 $w=4.23e-07 $l=3.05e-07 $layer=LI1_cond $X=0.337 $Y=1.665
+ $X2=0.337 $Y2=1.97
r36 10 11 10.033 $w=4.23e-07 $l=3.7e-07 $layer=LI1_cond $X=0.337 $Y=1.295
+ $X2=0.337 $Y2=1.665
r37 10 16 0.135582 $w=4.23e-07 $l=5e-09 $layer=LI1_cond $X=0.337 $Y=1.295
+ $X2=0.337 $Y2=1.29
r38 9 17 102.827 $w=1.5e-07 $l=3.2e-07 $layer=POLY_cond $X=0.52 $Y=0.805
+ $X2=0.52 $Y2=1.125
r39 5 21 196.298 $w=1.8e-07 $l=5.05e-07 $layer=POLY_cond $X=0.505 $Y=2.64
+ $X2=0.505 $Y2=2.135
r40 2 19 3.26277 $w=3.75e-07 $l=2.2e-08 $layer=POLY_cond $X=0.407 $Y=1.948
+ $X2=0.407 $Y2=1.97
r41 1 15 3.26277 $w=3.75e-07 $l=2.2e-08 $layer=POLY_cond $X=0.407 $Y=1.312
+ $X2=0.407 $Y2=1.29
r42 1 2 94.3237 $w=3.75e-07 $l=6.36e-07 $layer=POLY_cond $X=0.407 $Y=1.312
+ $X2=0.407 $Y2=1.948
.ends

.subckt PM_SKY130_FD_SC_MS__SDFBBN_2%D 3 9 11 12 13 20
c58 13 0 1.16291e-19 $X=1.68 $Y=1.665
r59 18 20 15.7375 $w=3.3e-07 $l=9e-08 $layer=POLY_cond $X=1.65 $Y=1.625 $X2=1.74
+ $Y2=1.625
r60 15 18 40.2181 $w=3.3e-07 $l=2.3e-07 $layer=POLY_cond $X=1.42 $Y=1.625
+ $X2=1.65 $Y2=1.625
r61 13 18 145.28 $w=1.7e-07 $l=1.7e-07 $layer=licon1_POLY $count=1 $X=1.65
+ $Y=1.625 $X2=1.65 $Y2=1.625
r62 11 12 60.4563 $w=1.8e-07 $l=1.5e-07 $layer=POLY_cond $X=1.375 $Y=2.035
+ $X2=1.375 $Y2=2.185
r63 7 20 21.2229 $w=1.5e-07 $l=1.65e-07 $layer=POLY_cond $X=1.74 $Y=1.46
+ $X2=1.74 $Y2=1.625
r64 7 9 335.862 $w=1.5e-07 $l=6.55e-07 $layer=POLY_cond $X=1.74 $Y=1.46 $X2=1.74
+ $Y2=0.805
r65 5 15 21.2229 $w=1.5e-07 $l=1.65e-07 $layer=POLY_cond $X=1.42 $Y=1.79
+ $X2=1.42 $Y2=1.625
r66 5 11 125.628 $w=1.5e-07 $l=2.45e-07 $layer=POLY_cond $X=1.42 $Y=1.79
+ $X2=1.42 $Y2=2.035
r67 3 12 176.863 $w=1.8e-07 $l=4.55e-07 $layer=POLY_cond $X=1.345 $Y=2.64
+ $X2=1.345 $Y2=2.185
.ends

.subckt PM_SKY130_FD_SC_MS__SDFBBN_2%A_341_410# 1 2 7 9 10 11 14 17 18 20 21 24
+ 28 32 34
c80 34 0 4.36151e-19 $X=3.067 $Y=1.645
c81 28 0 1.21362e-19 $X=3.025 $Y=0.815
c82 24 0 7.30946e-20 $X=2.77 $Y=1.645
c83 21 0 3.06618e-19 $X=2.94 $Y=1.645
c84 11 0 1.16291e-19 $X=1.885 $Y=2.125
r85 30 34 6.41553 $w=2.52e-07 $l=1.66493e-07 $layer=LI1_cond $X=3.07 $Y=1.81
+ $X2=3.067 $Y2=1.645
r86 30 32 30.194 $w=2.48e-07 $l=6.55e-07 $layer=LI1_cond $X=3.07 $Y=1.81
+ $X2=3.07 $Y2=2.465
r87 26 34 6.41553 $w=2.52e-07 $l=1.65e-07 $layer=LI1_cond $X=3.067 $Y=1.48
+ $X2=3.067 $Y2=1.645
r88 26 28 30.0539 $w=2.53e-07 $l=6.65e-07 $layer=LI1_cond $X=3.067 $Y=1.48
+ $X2=3.067 $Y2=0.815
r89 24 37 15.7375 $w=3.3e-07 $l=9e-08 $layer=POLY_cond $X=2.77 $Y=1.645 $X2=2.77
+ $Y2=1.735
r90 23 24 145.28 $w=1.7e-07 $l=1.7e-07 $layer=licon1_POLY $count=1 $X=2.77
+ $Y=1.645 $X2=2.77 $Y2=1.645
r91 21 34 0.398883 $w=3.3e-07 $l=1.27e-07 $layer=LI1_cond $X=2.94 $Y=1.645
+ $X2=3.067 $Y2=1.645
r92 21 23 5.93683 $w=3.28e-07 $l=1.7e-07 $layer=LI1_cond $X=2.94 $Y=1.645
+ $X2=2.77 $Y2=1.645
r93 19 20 5.30422 $w=1.5e-07 $l=7.5e-08 $layer=POLY_cond $X=2.205 $Y=1.735
+ $X2=2.13 $Y2=1.735
r94 18 37 21.2229 $w=1.5e-07 $l=1.65e-07 $layer=POLY_cond $X=2.605 $Y=1.735
+ $X2=2.77 $Y2=1.735
r95 18 19 205.106 $w=1.5e-07 $l=4e-07 $layer=POLY_cond $X=2.605 $Y=1.735
+ $X2=2.205 $Y2=1.735
r96 16 20 20.4101 $w=1.5e-07 $l=7.5e-08 $layer=POLY_cond $X=2.13 $Y=1.81
+ $X2=2.13 $Y2=1.735
r97 16 17 123.064 $w=1.5e-07 $l=2.4e-07 $layer=POLY_cond $X=2.13 $Y=1.81
+ $X2=2.13 $Y2=2.05
r98 12 20 20.4101 $w=1.5e-07 $l=7.5e-08 $layer=POLY_cond $X=2.13 $Y=1.66
+ $X2=2.13 $Y2=1.735
r99 12 14 438.415 $w=1.5e-07 $l=8.55e-07 $layer=POLY_cond $X=2.13 $Y=1.66
+ $X2=2.13 $Y2=0.805
r100 10 17 26.9307 $w=1.5e-07 $l=1.06066e-07 $layer=POLY_cond $X=2.055 $Y=2.125
+ $X2=2.13 $Y2=2.05
r101 10 11 87.1702 $w=1.5e-07 $l=1.7e-07 $layer=POLY_cond $X=2.055 $Y=2.125
+ $X2=1.885 $Y2=2.125
r102 7 11 27.2212 $w=1.5e-07 $l=1.21861e-07 $layer=POLY_cond $X=1.795 $Y=2.2
+ $X2=1.885 $Y2=2.125
r103 7 9 117.822 $w=1.8e-07 $l=4.4e-07 $layer=POLY_cond $X=1.795 $Y=2.2
+ $X2=1.795 $Y2=2.64
r104 2 32 300 $w=1.7e-07 $l=2.01494e-07 $layer=licon1_PDIFF $count=2 $X=2.895
+ $Y=2.32 $X2=3.03 $Y2=2.465
r105 1 28 182 $w=1.7e-07 $l=2.81425e-07 $layer=licon1_NDIFF $count=1 $X=2.885
+ $Y=0.595 $X2=3.025 $Y2=0.815
.ends

.subckt PM_SKY130_FD_SC_MS__SDFBBN_2%SCE 4 7 9 10 11 13 17 18 19 20 21 23 26 27
+ 28 29 33 34
c100 20 0 3.4396e-19 $X=3.175 $Y=2.125
c101 18 0 1.53309e-19 $X=3.175 $Y=1.165
c102 7 0 2.32243e-19 $X=0.955 $Y=2.64
c103 4 0 1.01507e-19 $X=0.91 $Y=0.805
r104 33 34 72.64 $w=1.7e-07 $l=3.4e-07 $layer=licon1_POLY $count=2 $X=0.97
+ $Y=1.29 $X2=0.97 $Y2=1.29
r105 28 29 8.67743 $w=5.08e-07 $l=3.7e-07 $layer=LI1_cond $X=1.06 $Y=1.295
+ $X2=1.06 $Y2=1.665
r106 28 34 0.117263 $w=5.08e-07 $l=5e-09 $layer=LI1_cond $X=1.06 $Y=1.295
+ $X2=1.06 $Y2=1.29
r107 26 33 59.4528 $w=3.3e-07 $l=3.4e-07 $layer=POLY_cond $X=0.97 $Y=1.63
+ $X2=0.97 $Y2=1.29
r108 26 27 35.4289 $w=3.3e-07 $l=1.65e-07 $layer=POLY_cond $X=0.97 $Y=1.63
+ $X2=0.97 $Y2=1.795
r109 25 33 41.8716 $w=3.3e-07 $l=1.65e-07 $layer=POLY_cond $X=0.97 $Y=1.125
+ $X2=0.97 $Y2=1.29
r110 22 23 415.34 $w=1.5e-07 $l=8.1e-07 $layer=POLY_cond $X=3.25 $Y=1.24
+ $X2=3.25 $Y2=2.05
r111 20 23 26.9307 $w=1.5e-07 $l=1.06066e-07 $layer=POLY_cond $X=3.175 $Y=2.125
+ $X2=3.25 $Y2=2.05
r112 20 21 143.574 $w=1.5e-07 $l=2.8e-07 $layer=POLY_cond $X=3.175 $Y=2.125
+ $X2=2.895 $Y2=2.125
r113 18 22 26.9307 $w=1.5e-07 $l=1.06066e-07 $layer=POLY_cond $X=3.175 $Y=1.165
+ $X2=3.25 $Y2=1.24
r114 18 19 148.702 $w=1.5e-07 $l=2.9e-07 $layer=POLY_cond $X=3.175 $Y=1.165
+ $X2=2.885 $Y2=1.165
r115 15 19 26.9307 $w=1.5e-07 $l=1.06066e-07 $layer=POLY_cond $X=2.81 $Y=1.09
+ $X2=2.885 $Y2=1.165
r116 15 17 146.138 $w=1.5e-07 $l=2.85e-07 $layer=POLY_cond $X=2.81 $Y=1.09
+ $X2=2.81 $Y2=0.805
r117 14 17 282.021 $w=1.5e-07 $l=5.5e-07 $layer=POLY_cond $X=2.81 $Y=0.255
+ $X2=2.81 $Y2=0.805
r118 11 21 27.2212 $w=1.5e-07 $l=1.21861e-07 $layer=POLY_cond $X=2.805 $Y=2.2
+ $X2=2.895 $Y2=2.125
r119 11 13 117.822 $w=1.8e-07 $l=4.4e-07 $layer=POLY_cond $X=2.805 $Y=2.2
+ $X2=2.805 $Y2=2.64
r120 9 14 26.9307 $w=1.5e-07 $l=1.06066e-07 $layer=POLY_cond $X=2.735 $Y=0.18
+ $X2=2.81 $Y2=0.255
r121 9 10 897.34 $w=1.5e-07 $l=1.75e-06 $layer=POLY_cond $X=2.735 $Y=0.18
+ $X2=0.985 $Y2=0.18
r122 7 27 328.46 $w=1.8e-07 $l=8.45e-07 $layer=POLY_cond $X=0.955 $Y=2.64
+ $X2=0.955 $Y2=1.795
r123 4 25 164.085 $w=1.5e-07 $l=3.2e-07 $layer=POLY_cond $X=0.91 $Y=0.805
+ $X2=0.91 $Y2=1.125
r124 1 10 26.9307 $w=1.5e-07 $l=1.06066e-07 $layer=POLY_cond $X=0.91 $Y=0.255
+ $X2=0.985 $Y2=0.18
r125 1 4 282.021 $w=1.5e-07 $l=5.5e-07 $layer=POLY_cond $X=0.91 $Y=0.255
+ $X2=0.91 $Y2=0.805
.ends

.subckt PM_SKY130_FD_SC_MS__SDFBBN_2%CLK_N 3 6 8 11 12 13
c42 12 0 1.13063e-19 $X=3.73 $Y=1.515
c43 11 0 3.06916e-19 $X=3.73 $Y=1.515
r44 11 14 40.7132 $w=3.4e-07 $l=1.65e-07 $layer=POLY_cond $X=3.735 $Y=1.515
+ $X2=3.735 $Y2=1.68
r45 11 13 46.3065 $w=3.4e-07 $l=1.65e-07 $layer=POLY_cond $X=3.735 $Y=1.515
+ $X2=3.735 $Y2=1.35
r46 11 12 145.28 $w=1.7e-07 $l=1.7e-07 $layer=licon1_POLY $count=1 $X=3.73
+ $Y=1.515 $X2=3.73 $Y2=1.515
r47 8 12 4.21625 $w=4.08e-07 $l=1.5e-07 $layer=LI1_cond $X=3.69 $Y=1.665
+ $X2=3.69 $Y2=1.515
r48 6 14 279.871 $w=1.8e-07 $l=7.2e-07 $layer=POLY_cond $X=3.815 $Y=2.4
+ $X2=3.815 $Y2=1.68
r49 3 13 157.453 $w=1.5e-07 $l=4.9e-07 $layer=POLY_cond $X=3.8 $Y=0.86 $X2=3.8
+ $Y2=1.35
.ends

.subckt PM_SKY130_FD_SC_MS__SDFBBN_2%A_1007_366# 1 2 3 12 16 17 18 20 23 27 30
+ 32 33 34 36 38 41 43 47 51 55 56 58 60 63 64 65 69 71 76
c192 65 0 4.51061e-21 $X=9.07 $Y=2.035
c193 56 0 1.26757e-20 $X=5.2 $Y=1.995
c194 55 0 3.62521e-20 $X=5.2 $Y=1.995
c195 51 0 1.46444e-19 $X=9.78 $Y=1.745
c196 23 0 8.54043e-20 $X=9.435 $Y=0.9
c197 16 0 8.01569e-20 $X=5.775 $Y=1.195
r198 67 69 1.92074 $w=3.28e-07 $l=5.5e-08 $layer=LI1_cond $X=9.07 $Y=2.21
+ $X2=9.07 $Y2=2.265
r199 65 67 6.11144 $w=3.28e-07 $l=1.75e-07 $layer=LI1_cond $X=9.07 $Y=2.035
+ $X2=9.07 $Y2=2.21
r200 62 63 8.63679 $w=3.28e-07 $l=1.7e-07 $layer=LI1_cond $X=8.077 $Y=0.945
+ $X2=8.077 $Y2=1.115
r201 60 61 14.878 $w=2.46e-07 $l=3e-07 $layer=LI1_cond $X=7.66 $Y=2.9 $X2=7.96
+ $Y2=2.9
r202 56 72 40.6903 $w=3.3e-07 $l=1.65e-07 $layer=POLY_cond $X=5.2 $Y=1.995
+ $X2=5.2 $Y2=2.16
r203 56 71 46.2115 $w=3.3e-07 $l=1.65e-07 $layer=POLY_cond $X=5.2 $Y=1.995
+ $X2=5.2 $Y2=1.83
r204 55 56 145.28 $w=1.7e-07 $l=1.7e-07 $layer=licon1_POLY $count=1 $X=5.2
+ $Y=1.995 $X2=5.2 $Y2=1.995
r205 52 76 13.1146 $w=3.3e-07 $l=7.5e-08 $layer=POLY_cond $X=9.78 $Y=1.745
+ $X2=9.855 $Y2=1.745
r206 52 73 60.3271 $w=3.3e-07 $l=3.45e-07 $layer=POLY_cond $X=9.78 $Y=1.745
+ $X2=9.435 $Y2=1.745
r207 51 52 145.28 $w=1.7e-07 $l=1.7e-07 $layer=licon1_POLY $count=1 $X=9.78
+ $Y=1.745 $X2=9.78 $Y2=1.745
r208 49 51 7.15912 $w=3.28e-07 $l=2.05e-07 $layer=LI1_cond $X=9.78 $Y=1.95
+ $X2=9.78 $Y2=1.745
r209 48 65 4.62375 $w=1.7e-07 $l=1.65e-07 $layer=LI1_cond $X=9.235 $Y=2.035
+ $X2=9.07 $Y2=2.035
r210 47 49 7.76618 $w=1.7e-07 $l=2.03101e-07 $layer=LI1_cond $X=9.615 $Y=2.035
+ $X2=9.78 $Y2=1.95
r211 47 48 24.7914 $w=1.68e-07 $l=3.8e-07 $layer=LI1_cond $X=9.615 $Y=2.035
+ $X2=9.235 $Y2=2.035
r212 44 64 1.34256 $w=1.7e-07 $l=8.5e-08 $layer=LI1_cond $X=8.045 $Y=2.21
+ $X2=7.96 $Y2=2.21
r213 43 67 4.62375 $w=1.7e-07 $l=1.65e-07 $layer=LI1_cond $X=8.905 $Y=2.21
+ $X2=9.07 $Y2=2.21
r214 43 44 56.107 $w=1.68e-07 $l=8.6e-07 $layer=LI1_cond $X=8.905 $Y=2.21
+ $X2=8.045 $Y2=2.21
r215 41 62 2.96841 $w=3.28e-07 $l=8.5e-08 $layer=LI1_cond $X=8.115 $Y=0.86
+ $X2=8.115 $Y2=0.945
r216 38 61 2.90119 $w=1.7e-07 $l=1.7e-07 $layer=LI1_cond $X=7.96 $Y=2.73
+ $X2=7.96 $Y2=2.9
r217 37 64 5.16603 $w=1.7e-07 $l=8.5e-08 $layer=LI1_cond $X=7.96 $Y=2.295
+ $X2=7.96 $Y2=2.21
r218 37 38 28.3797 $w=1.68e-07 $l=4.35e-07 $layer=LI1_cond $X=7.96 $Y=2.295
+ $X2=7.96 $Y2=2.73
r219 36 64 5.16603 $w=1.7e-07 $l=8.5e-08 $layer=LI1_cond $X=7.96 $Y=2.125
+ $X2=7.96 $Y2=2.21
r220 36 63 65.8931 $w=1.68e-07 $l=1.01e-06 $layer=LI1_cond $X=7.96 $Y=2.125
+ $X2=7.96 $Y2=1.115
r221 34 58 8.71323 $w=3.43e-07 $l=1.72e-07 $layer=LI1_cond $X=7.072 $Y=2.902
+ $X2=6.9 $Y2=2.902
r222 33 60 1.26986 $w=3.45e-07 $l=7.93725e-09 $layer=LI1_cond $X=7.653 $Y=2.902
+ $X2=7.66 $Y2=2.9
r223 33 34 19.4078 $w=3.43e-07 $l=5.81e-07 $layer=LI1_cond $X=7.653 $Y=2.902
+ $X2=7.072 $Y2=2.902
r224 32 58 87.7487 $w=1.68e-07 $l=1.345e-06 $layer=LI1_cond $X=5.555 $Y=2.99
+ $X2=6.9 $Y2=2.99
r225 30 32 6.81649 $w=1.7e-07 $l=1.20208e-07 $layer=LI1_cond $X=5.47 $Y=2.905
+ $X2=5.555 $Y2=2.99
r226 29 55 11.5986 $w=2.84e-07 $l=3.46627e-07 $layer=LI1_cond $X=5.47 $Y=2.18
+ $X2=5.2 $Y2=2.005
r227 29 30 47.2995 $w=1.68e-07 $l=7.25e-07 $layer=LI1_cond $X=5.47 $Y=2.18
+ $X2=5.47 $Y2=2.905
r228 25 76 16.9318 $w=1.8e-07 $l=1.65e-07 $layer=POLY_cond $X=9.855 $Y=1.91
+ $X2=9.855 $Y2=1.745
r229 25 27 244.887 $w=1.8e-07 $l=6.3e-07 $layer=POLY_cond $X=9.855 $Y=1.91
+ $X2=9.855 $Y2=2.54
r230 21 73 21.2229 $w=1.5e-07 $l=1.65e-07 $layer=POLY_cond $X=9.435 $Y=1.58
+ $X2=9.435 $Y2=1.745
r231 21 23 348.681 $w=1.5e-07 $l=6.8e-07 $layer=POLY_cond $X=9.435 $Y=1.58
+ $X2=9.435 $Y2=0.9
r232 18 20 91.58 $w=1.5e-07 $l=2.85e-07 $layer=POLY_cond $X=5.85 $Y=1.12
+ $X2=5.85 $Y2=0.835
r233 16 18 26.9307 $w=1.5e-07 $l=1.06066e-07 $layer=POLY_cond $X=5.775 $Y=1.195
+ $X2=5.85 $Y2=1.12
r234 16 17 215.362 $w=1.5e-07 $l=4.2e-07 $layer=POLY_cond $X=5.775 $Y=1.195
+ $X2=5.355 $Y2=1.195
r235 14 17 26.9307 $w=1.5e-07 $l=1.06066e-07 $layer=POLY_cond $X=5.28 $Y=1.27
+ $X2=5.355 $Y2=1.195
r236 14 71 287.149 $w=1.5e-07 $l=5.6e-07 $layer=POLY_cond $X=5.28 $Y=1.27
+ $X2=5.28 $Y2=1.83
r237 12 72 143.823 $w=1.8e-07 $l=3.7e-07 $layer=POLY_cond $X=5.275 $Y=2.53
+ $X2=5.275 $Y2=2.16
r238 3 69 300 $w=1.7e-07 $l=2.01494e-07 $layer=licon1_PDIFF $count=2 $X=8.935
+ $Y=2.12 $X2=9.07 $Y2=2.265
r239 2 60 300 $w=1.7e-07 $l=1.03049e-06 $layer=licon1_PDIFF $count=2 $X=6.92
+ $Y=2.12 $X2=7.66 $Y2=2.815
r240 1 41 182 $w=1.7e-07 $l=2.96859e-07 $layer=licon1_NDIFF $count=1 $X=7.975
+ $Y=0.625 $X2=8.115 $Y2=0.86
.ends

.subckt PM_SKY130_FD_SC_MS__SDFBBN_2%A_871_368# 1 2 9 13 17 21 25 31 33 39 40 43
+ 44 45 47 48 49 51 52 58 59 62 70 77
c202 77 0 1.26757e-20 $X=5.855 $Y=1.265
c203 70 0 1.62439e-20 $X=10.32 $Y=1.59
c204 62 0 1.15277e-19 $X=5.76 $Y=1.675
c205 52 0 1.27085e-19 $X=6.145 $Y=1.295
c206 51 0 6.70526e-20 $X=10.175 $Y=1.295
c207 47 0 9.35685e-20 $X=6.66 $Y=1.69
c208 21 0 1.08678e-19 $X=11.16 $Y=0.62
r209 71 85 5.5876 $w=3.28e-07 $l=1.6e-07 $layer=LI1_cond $X=10.32 $Y=1.59
+ $X2=10.32 $Y2=1.43
r210 70 73 40.6903 $w=3.3e-07 $l=1.65e-07 $layer=POLY_cond $X=10.32 $Y=1.59
+ $X2=10.32 $Y2=1.755
r211 70 71 145.28 $w=1.7e-07 $l=1.7e-07 $layer=licon1_POLY $count=1 $X=10.32
+ $Y=1.59 $X2=10.32 $Y2=1.59
r212 63 81 0.161011 $w=5.18e-07 $l=7e-09 $layer=LI1_cond $X=5.855 $Y=1.675
+ $X2=5.855 $Y2=1.682
r213 62 65 40.6903 $w=3.3e-07 $l=1.65e-07 $layer=POLY_cond $X=5.76 $Y=1.675
+ $X2=5.76 $Y2=1.84
r214 62 63 145.28 $w=1.7e-07 $l=1.7e-07 $layer=licon1_POLY $count=1 $X=5.76
+ $Y=1.675 $X2=5.76 $Y2=1.675
r215 59 85 4.71454 $w=3.28e-07 $l=1.35e-07 $layer=LI1_cond $X=10.32 $Y=1.295
+ $X2=10.32 $Y2=1.43
r216 58 59 9.3 $w=1.7e-07 $l=1.7e-07 $layer=mcon $count=1 $X=10.32 $Y=1.295
+ $X2=10.32 $Y2=1.295
r217 55 63 8.74057 $w=5.18e-07 $l=3.8e-07 $layer=LI1_cond $X=5.855 $Y=1.295
+ $X2=5.855 $Y2=1.675
r218 55 77 0.690045 $w=5.18e-07 $l=3e-08 $layer=LI1_cond $X=5.855 $Y=1.295
+ $X2=5.855 $Y2=1.265
r219 54 55 9.3 $w=1.7e-07 $l=1.7e-07 $layer=mcon $count=1 $X=6 $Y=1.295 $X2=6
+ $Y2=1.295
r220 52 54 0.115467 $w=2.3e-07 $l=1.45e-07 $layer=MET1_cond $X=6.145 $Y=1.295
+ $X2=6 $Y2=1.295
r221 51 58 0.115467 $w=2.3e-07 $l=1.45e-07 $layer=MET1_cond $X=10.175 $Y=1.295
+ $X2=10.32 $Y2=1.295
r222 51 52 4.98761 $w=1.4e-07 $l=4.03e-06 $layer=MET1_cond $X=10.175 $Y=1.295
+ $X2=6.145 $Y2=1.295
r223 48 67 46.2115 $w=3.3e-07 $l=1.65e-07 $layer=POLY_cond $X=6.66 $Y=1.69
+ $X2=6.66 $Y2=1.525
r224 47 49 5.76222 $w=3.28e-07 $l=1.65e-07 $layer=LI1_cond $X=6.66 $Y=1.69
+ $X2=6.495 $Y2=1.69
r225 47 48 145.28 $w=1.7e-07 $l=1.7e-07 $layer=licon1_POLY $count=1 $X=6.66
+ $Y=1.69 $X2=6.66 $Y2=1.69
r226 43 44 8.5712 $w=3.78e-07 $l=1.65e-07 $layer=LI1_cond $X=4.595 $Y=2.005
+ $X2=4.595 $Y2=1.84
r227 40 75 46.2115 $w=3.3e-07 $l=1.65e-07 $layer=POLY_cond $X=11.22 $Y=1.43
+ $X2=11.22 $Y2=1.265
r228 39 40 145.28 $w=1.7e-07 $l=1.7e-07 $layer=licon1_POLY $count=1 $X=11.22
+ $Y=1.43 $X2=11.22 $Y2=1.43
r229 37 85 1.29116 $w=3e-07 $l=1.65e-07 $layer=LI1_cond $X=10.485 $Y=1.43
+ $X2=10.32 $Y2=1.43
r230 37 39 28.2349 $w=2.98e-07 $l=7.35e-07 $layer=LI1_cond $X=10.485 $Y=1.43
+ $X2=11.22 $Y2=1.43
r231 36 81 3.68146 $w=3.15e-07 $l=2.6e-07 $layer=LI1_cond $X=6.115 $Y=1.682
+ $X2=5.855 $Y2=1.682
r232 36 49 13.9025 $w=3.13e-07 $l=3.8e-07 $layer=LI1_cond $X=6.115 $Y=1.682
+ $X2=6.495 $Y2=1.682
r233 34 45 2.11342 $w=1.7e-07 $l=1.63e-07 $layer=LI1_cond $X=4.94 $Y=1.265
+ $X2=4.777 $Y2=1.265
r234 33 77 7.40362 $w=1.7e-07 $l=2.6e-07 $layer=LI1_cond $X=5.595 $Y=1.265
+ $X2=5.855 $Y2=1.265
r235 33 34 42.7326 $w=1.68e-07 $l=6.55e-07 $layer=LI1_cond $X=5.595 $Y=1.265
+ $X2=4.94 $Y2=1.265
r236 29 45 4.3182 $w=2.1e-07 $l=1.0225e-07 $layer=LI1_cond $X=4.815 $Y=1.18
+ $X2=4.777 $Y2=1.265
r237 29 31 19.361 $w=2.48e-07 $l=4.2e-07 $layer=LI1_cond $X=4.815 $Y=1.18
+ $X2=4.815 $Y2=0.76
r238 27 45 4.3182 $w=2.1e-07 $l=1.17346e-07 $layer=LI1_cond $X=4.7 $Y=1.35
+ $X2=4.777 $Y2=1.265
r239 27 44 31.9679 $w=1.68e-07 $l=4.9e-07 $layer=LI1_cond $X=4.7 $Y=1.35 $X2=4.7
+ $Y2=1.84
r240 23 43 0.758186 $w=3.78e-07 $l=2.5e-08 $layer=LI1_cond $X=4.595 $Y=2.03
+ $X2=4.595 $Y2=2.005
r241 23 25 23.807 $w=3.78e-07 $l=7.85e-07 $layer=LI1_cond $X=4.595 $Y=2.03
+ $X2=4.595 $Y2=2.815
r242 21 75 330.734 $w=1.5e-07 $l=6.45e-07 $layer=POLY_cond $X=11.16 $Y=0.62
+ $X2=11.16 $Y2=1.265
r243 17 73 305.137 $w=1.8e-07 $l=7.85e-07 $layer=POLY_cond $X=10.245 $Y=2.54
+ $X2=10.245 $Y2=1.755
r244 13 67 353.809 $w=1.5e-07 $l=6.9e-07 $layer=POLY_cond $X=6.665 $Y=0.835
+ $X2=6.665 $Y2=1.525
r245 9 65 268.21 $w=1.8e-07 $l=6.9e-07 $layer=POLY_cond $X=5.695 $Y=2.53
+ $X2=5.695 $Y2=1.84
r246 2 43 400 $w=1.7e-07 $l=2.22486e-07 $layer=licon1_PDIFF $count=1 $X=4.355
+ $Y=1.84 $X2=4.49 $Y2=2.005
r247 2 25 400 $w=1.7e-07 $l=1.04031e-06 $layer=licon1_PDIFF $count=1 $X=4.355
+ $Y=1.84 $X2=4.49 $Y2=2.815
r248 1 31 91 $w=1.7e-07 $l=3.32716e-07 $layer=licon1_NDIFF $count=2 $X=4.715
+ $Y=0.49 $X2=4.855 $Y2=0.76
.ends

.subckt PM_SKY130_FD_SC_MS__SDFBBN_2%A_1157_464# 1 2 7 8 11 13 15 17 20 22 23 26
+ 28 29 33 34
c98 29 0 8.01569e-20 $X=6.615 $Y=1.27
c99 26 0 1.27085e-19 $X=6.45 $Y=0.835
c100 8 0 6.70526e-20 $X=7.365 $Y=1.36
r101 33 34 72.64 $w=1.7e-07 $l=3.4e-07 $layer=licon1_POLY $count=2 $X=7.2
+ $Y=1.45 $X2=7.2 $Y2=1.45
r102 31 33 20.6043 $w=3.28e-07 $l=5.9e-07 $layer=LI1_cond $X=7.2 $Y=2.04 $X2=7.2
+ $Y2=1.45
r103 30 33 3.31764 $w=3.28e-07 $l=9.5e-08 $layer=LI1_cond $X=7.2 $Y=1.355
+ $X2=7.2 $Y2=1.45
r104 28 30 7.76618 $w=1.7e-07 $l=2.03101e-07 $layer=LI1_cond $X=7.035 $Y=1.27
+ $X2=7.2 $Y2=1.355
r105 28 29 27.4011 $w=1.68e-07 $l=4.2e-07 $layer=LI1_cond $X=7.035 $Y=1.27
+ $X2=6.615 $Y2=1.27
r106 24 29 7.76618 $w=1.7e-07 $l=2.03101e-07 $layer=LI1_cond $X=6.45 $Y=1.185
+ $X2=6.615 $Y2=1.27
r107 24 26 12.2229 $w=3.28e-07 $l=3.5e-07 $layer=LI1_cond $X=6.45 $Y=1.185
+ $X2=6.45 $Y2=0.835
r108 22 31 7.76618 $w=1.7e-07 $l=2.03101e-07 $layer=LI1_cond $X=7.035 $Y=2.125
+ $X2=7.2 $Y2=2.04
r109 22 23 56.4332 $w=1.68e-07 $l=8.65e-07 $layer=LI1_cond $X=7.035 $Y=2.125
+ $X2=6.17 $Y2=2.125
r110 18 23 7.76618 $w=1.7e-07 $l=2.03101e-07 $layer=LI1_cond $X=6.005 $Y=2.21
+ $X2=6.17 $Y2=2.125
r111 18 20 10.6514 $w=3.28e-07 $l=3.05e-07 $layer=LI1_cond $X=6.005 $Y=2.21
+ $X2=6.005 $Y2=2.515
r112 16 34 2.62292 $w=3.3e-07 $l=1.5e-08 $layer=POLY_cond $X=7.2 $Y=1.435
+ $X2=7.2 $Y2=1.45
r113 13 17 18.8402 $w=1.65e-07 $l=8.21584e-08 $layer=POLY_cond $X=7.9 $Y=1.285
+ $X2=7.885 $Y2=1.36
r114 13 15 123.713 $w=1.5e-07 $l=3.85e-07 $layer=POLY_cond $X=7.9 $Y=1.285
+ $X2=7.9 $Y2=0.9
r115 9 17 18.8402 $w=1.65e-07 $l=7.5e-08 $layer=POLY_cond $X=7.885 $Y=1.435
+ $X2=7.885 $Y2=1.36
r116 9 11 429.524 $w=1.8e-07 $l=1.105e-06 $layer=POLY_cond $X=7.885 $Y=1.435
+ $X2=7.885 $Y2=2.54
r117 8 16 32.1775 $w=1.5e-07 $l=1.98997e-07 $layer=POLY_cond $X=7.365 $Y=1.36
+ $X2=7.2 $Y2=1.435
r118 7 17 6.66866 $w=1.5e-07 $l=9e-08 $layer=POLY_cond $X=7.795 $Y=1.36
+ $X2=7.885 $Y2=1.36
r119 7 8 220.489 $w=1.5e-07 $l=4.3e-07 $layer=POLY_cond $X=7.795 $Y=1.36
+ $X2=7.365 $Y2=1.36
r120 2 20 600 $w=1.7e-07 $l=3.02159e-07 $layer=licon1_PDIFF $count=1 $X=5.785
+ $Y=2.32 $X2=6.005 $Y2=2.515
r121 1 26 182 $w=1.7e-07 $l=2.80624e-07 $layer=licon1_NDIFF $count=1 $X=6.285
+ $Y=0.625 $X2=6.45 $Y2=0.835
.ends

.subckt PM_SKY130_FD_SC_MS__SDFBBN_2%A_1643_257# 1 2 9 13 16 20 22 23 24 27 30
+ 31 32 34 35 36 37 41 44 47 51 52 53 57 58 61 63 67 71
c201 71 0 1.11129e-19 $X=12.66 $Y=1.22
c202 58 0 1.91513e-19 $X=12.66 $Y=1.13
c203 57 0 1.28025e-19 $X=12.66 $Y=1.215
c204 32 0 7.74904e-20 $X=9.725 $Y=0.345
c205 24 0 4.51061e-21 $X=8.38 $Y=1.955
r206 64 67 7.68295 $w=3.28e-07 $l=2.2e-07 $layer=LI1_cond $X=13.69 $Y=2.17
+ $X2=13.91 $Y2=2.17
r207 61 72 40.6903 $w=3.3e-07 $l=1.65e-07 $layer=POLY_cond $X=12.66 $Y=1.385
+ $X2=12.66 $Y2=1.55
r208 61 71 46.2115 $w=3.3e-07 $l=1.65e-07 $layer=POLY_cond $X=12.66 $Y=1.385
+ $X2=12.66 $Y2=1.22
r209 60 61 145.28 $w=1.7e-07 $l=1.7e-07 $layer=licon1_POLY $count=1 $X=12.66
+ $Y=1.385 $X2=12.66 $Y2=1.385
r210 57 60 5.93683 $w=3.28e-07 $l=1.7e-07 $layer=LI1_cond $X=12.66 $Y=1.215
+ $X2=12.66 $Y2=1.385
r211 57 58 5.66838 $w=3.28e-07 $l=8.5e-08 $layer=LI1_cond $X=12.66 $Y=1.215
+ $X2=12.66 $Y2=1.13
r212 53 55 11.0909 $w=1.68e-07 $l=1.7e-07 $layer=LI1_cond $X=11.98 $Y=0.685
+ $X2=11.98 $Y2=0.855
r213 51 52 72.64 $w=1.7e-07 $l=3.4e-07 $layer=licon1_POLY $count=2 $X=8.38
+ $Y=1.45 $X2=8.38 $Y2=1.45
r214 45 63 3.70735 $w=2.5e-07 $l=8.5e-08 $layer=LI1_cond $X=13.775 $Y=1.17
+ $X2=13.69 $Y2=1.17
r215 45 47 7.33373 $w=3.28e-07 $l=2.1e-07 $layer=LI1_cond $X=13.775 $Y=1.17
+ $X2=13.985 $Y2=1.17
r216 44 64 4.62375 $w=1.7e-07 $l=1.65e-07 $layer=LI1_cond $X=13.69 $Y=2.005
+ $X2=13.69 $Y2=2.17
r217 43 63 2.76166 $w=1.7e-07 $l=1.65e-07 $layer=LI1_cond $X=13.69 $Y=1.335
+ $X2=13.69 $Y2=1.17
r218 43 44 43.7112 $w=1.68e-07 $l=6.7e-07 $layer=LI1_cond $X=13.69 $Y=1.335
+ $X2=13.69 $Y2=2.005
r219 42 57 4.62375 $w=1.7e-07 $l=1.65e-07 $layer=LI1_cond $X=12.825 $Y=1.215
+ $X2=12.66 $Y2=1.215
r220 41 63 3.70735 $w=2.5e-07 $l=1.05119e-07 $layer=LI1_cond $X=13.605 $Y=1.215
+ $X2=13.69 $Y2=1.17
r221 41 42 50.8877 $w=1.68e-07 $l=7.8e-07 $layer=LI1_cond $X=13.605 $Y=1.215
+ $X2=12.825 $Y2=1.215
r222 39 58 12.3957 $w=1.68e-07 $l=1.9e-07 $layer=LI1_cond $X=12.58 $Y=0.94
+ $X2=12.58 $Y2=1.13
r223 38 55 0.716491 $w=1.7e-07 $l=8.5e-08 $layer=LI1_cond $X=12.065 $Y=0.855
+ $X2=11.98 $Y2=0.855
r224 37 39 6.81649 $w=1.7e-07 $l=1.20208e-07 $layer=LI1_cond $X=12.495 $Y=0.855
+ $X2=12.58 $Y2=0.94
r225 37 38 28.0535 $w=1.68e-07 $l=4.3e-07 $layer=LI1_cond $X=12.495 $Y=0.855
+ $X2=12.065 $Y2=0.855
r226 35 53 0.716491 $w=1.7e-07 $l=8.5e-08 $layer=LI1_cond $X=11.895 $Y=0.685
+ $X2=11.98 $Y2=0.685
r227 35 36 25.1176 $w=1.68e-07 $l=3.85e-07 $layer=LI1_cond $X=11.895 $Y=0.685
+ $X2=11.51 $Y2=0.685
r228 34 36 6.81649 $w=1.7e-07 $l=1.20208e-07 $layer=LI1_cond $X=11.425 $Y=0.6
+ $X2=11.51 $Y2=0.685
r229 33 34 11.0909 $w=1.68e-07 $l=1.7e-07 $layer=LI1_cond $X=11.425 $Y=0.43
+ $X2=11.425 $Y2=0.6
r230 31 33 6.81649 $w=1.7e-07 $l=1.20208e-07 $layer=LI1_cond $X=11.34 $Y=0.345
+ $X2=11.425 $Y2=0.43
r231 31 32 105.364 $w=1.68e-07 $l=1.615e-06 $layer=LI1_cond $X=11.34 $Y=0.345
+ $X2=9.725 $Y2=0.345
r232 29 32 6.81649 $w=1.7e-07 $l=1.20208e-07 $layer=LI1_cond $X=9.64 $Y=0.43
+ $X2=9.725 $Y2=0.345
r233 29 30 44.3636 $w=1.68e-07 $l=6.8e-07 $layer=LI1_cond $X=9.64 $Y=0.43
+ $X2=9.64 $Y2=1.11
r234 28 51 10.5458 $w=2.95e-07 $l=3.41746e-07 $layer=LI1_cond $X=8.62 $Y=1.195
+ $X2=8.417 $Y2=1.45
r235 27 30 6.81649 $w=1.7e-07 $l=1.20208e-07 $layer=LI1_cond $X=9.555 $Y=1.195
+ $X2=9.64 $Y2=1.11
r236 27 28 61 $w=1.68e-07 $l=9.35e-07 $layer=LI1_cond $X=9.555 $Y=1.195 $X2=8.62
+ $Y2=1.195
r237 23 52 59.4528 $w=3.3e-07 $l=3.4e-07 $layer=POLY_cond $X=8.38 $Y=1.79
+ $X2=8.38 $Y2=1.45
r238 23 24 40.6903 $w=3.3e-07 $l=1.65e-07 $layer=POLY_cond $X=8.38 $Y=1.79
+ $X2=8.38 $Y2=1.955
r239 22 52 40.8701 $w=3.3e-07 $l=1.65e-07 $layer=POLY_cond $X=8.38 $Y=1.285
+ $X2=8.38 $Y2=1.45
r240 20 71 154.24 $w=1.5e-07 $l=4.8e-07 $layer=POLY_cond $X=12.705 $Y=0.74
+ $X2=12.705 $Y2=1.22
r241 16 72 353.726 $w=1.8e-07 $l=9.1e-07 $layer=POLY_cond $X=12.705 $Y=2.46
+ $X2=12.705 $Y2=1.55
r242 13 22 123.713 $w=1.5e-07 $l=3.85e-07 $layer=POLY_cond $X=8.33 $Y=0.9
+ $X2=8.33 $Y2=1.285
r243 9 24 227.395 $w=1.8e-07 $l=5.85e-07 $layer=POLY_cond $X=8.305 $Y=2.54
+ $X2=8.305 $Y2=1.955
r244 2 67 600 $w=1.7e-07 $l=2.36643e-07 $layer=licon1_PDIFF $count=1 $X=13.765
+ $Y=1.995 $X2=13.91 $Y2=2.17
r245 1 47 182 $w=1.7e-07 $l=3.32716e-07 $layer=licon1_NDIFF $count=1 $X=13.845
+ $Y=0.9 $X2=13.985 $Y2=1.17
.ends

.subckt PM_SKY130_FD_SC_MS__SDFBBN_2%SET_B 3 7 11 15 16 17 20 22 25 30 31 32
c133 32 0 1.96837e-19 $X=12.12 $Y=1.22
c134 31 0 1.11129e-19 $X=12.12 $Y=1.385
c135 25 0 1.46444e-19 $X=8.955 $Y=1.615
c136 16 0 1.54515e-19 $X=12.095 $Y=1.665
r137 31 41 8.72119 $w=3.68e-07 $l=2.8e-07 $layer=LI1_cond $X=12.14 $Y=1.385
+ $X2=12.14 $Y2=1.665
r138 30 33 40.6903 $w=3.3e-07 $l=1.65e-07 $layer=POLY_cond $X=12.12 $Y=1.385
+ $X2=12.12 $Y2=1.55
r139 30 32 46.2115 $w=3.3e-07 $l=1.65e-07 $layer=POLY_cond $X=12.12 $Y=1.385
+ $X2=12.12 $Y2=1.22
r140 30 31 145.28 $w=1.7e-07 $l=1.7e-07 $layer=licon1_POLY $count=1 $X=12.12
+ $Y=1.385 $X2=12.12 $Y2=1.385
r141 25 28 40.9207 $w=3.65e-07 $l=1.65e-07 $layer=POLY_cond $X=8.937 $Y=1.615
+ $X2=8.937 $Y2=1.78
r142 25 27 46.6671 $w=3.65e-07 $l=1.65e-07 $layer=POLY_cond $X=8.937 $Y=1.615
+ $X2=8.937 $Y2=1.45
r143 25 26 145.28 $w=1.7e-07 $l=1.7e-07 $layer=licon1_POLY $count=1 $X=8.955
+ $Y=1.615 $X2=8.955 $Y2=1.615
r144 22 41 9.3 $w=1.7e-07 $l=1.7e-07 $layer=mcon $count=1 $X=12.24 $Y=1.665
+ $X2=12.24 $Y2=1.665
r145 20 26 14.1436 $w=3.28e-07 $l=4.05e-07 $layer=LI1_cond $X=9.36 $Y=1.615
+ $X2=8.955 $Y2=1.615
r146 19 20 9.3 $w=1.7e-07 $l=1.7e-07 $layer=mcon $count=1 $X=9.36 $Y=1.665
+ $X2=9.36 $Y2=1.665
r147 17 19 0.115467 $w=2.3e-07 $l=1.45e-07 $layer=MET1_cond $X=9.505 $Y=1.665
+ $X2=9.36 $Y2=1.665
r148 16 22 0.115467 $w=2.3e-07 $l=1.45e-07 $layer=MET1_cond $X=12.095 $Y=1.665
+ $X2=12.24 $Y2=1.665
r149 16 17 3.20544 $w=1.4e-07 $l=2.59e-06 $layer=MET1_cond $X=12.095 $Y=1.665
+ $X2=9.505 $Y2=1.665
r150 15 32 154.24 $w=1.5e-07 $l=4.8e-07 $layer=POLY_cond $X=12.185 $Y=0.74
+ $X2=12.185 $Y2=1.22
r151 11 33 353.726 $w=1.8e-07 $l=9.1e-07 $layer=POLY_cond $X=12.195 $Y=2.46
+ $X2=12.195 $Y2=1.55
r152 7 27 282.021 $w=1.5e-07 $l=5.5e-07 $layer=POLY_cond $X=8.935 $Y=0.9
+ $X2=8.935 $Y2=1.45
r153 3 28 295.419 $w=1.8e-07 $l=7.6e-07 $layer=POLY_cond $X=8.845 $Y=2.54
+ $X2=8.845 $Y2=1.78
.ends

.subckt PM_SKY130_FD_SC_MS__SDFBBN_2%A_688_98# 1 2 9 14 15 16 20 23 24 29 30 31
+ 32 34 38 40 41 42 46 48 50 55 59 61 66
c176 66 0 1.16265e-19 $X=4.64 $Y=1.505
c177 32 0 1.32086e-19 $X=10.78 $Y=2.085
c178 20 0 9.35685e-20 $X=6.21 $Y=0.835
c179 9 0 1.13063e-19 $X=4.265 $Y=2.4
r180 60 66 62.9501 $w=3.3e-07 $l=3.6e-07 $layer=POLY_cond $X=4.28 $Y=1.505
+ $X2=4.64 $Y2=1.505
r181 60 63 2.62292 $w=3.3e-07 $l=1.5e-08 $layer=POLY_cond $X=4.28 $Y=1.505
+ $X2=4.265 $Y2=1.505
r182 59 62 8.5712 $w=3.78e-07 $l=1.65e-07 $layer=LI1_cond $X=4.255 $Y=1.505
+ $X2=4.255 $Y2=1.67
r183 59 61 8.5712 $w=3.78e-07 $l=1.65e-07 $layer=LI1_cond $X=4.255 $Y=1.505
+ $X2=4.255 $Y2=1.34
r184 59 60 145.28 $w=1.7e-07 $l=1.7e-07 $layer=licon1_POLY $count=1 $X=4.28
+ $Y=1.505 $X2=4.28 $Y2=1.505
r185 55 62 18.2674 $w=1.68e-07 $l=2.8e-07 $layer=LI1_cond $X=4.15 $Y=1.95
+ $X2=4.15 $Y2=1.67
r186 52 61 11.0909 $w=1.68e-07 $l=1.7e-07 $layer=LI1_cond $X=4.15 $Y=1.17
+ $X2=4.15 $Y2=1.34
r187 51 57 4.25188 $w=1.7e-07 $l=1.25e-07 $layer=LI1_cond $X=3.675 $Y=2.035
+ $X2=3.55 $Y2=2.035
r188 50 55 6.81649 $w=1.7e-07 $l=1.20208e-07 $layer=LI1_cond $X=4.065 $Y=2.035
+ $X2=4.15 $Y2=1.95
r189 50 51 25.4438 $w=1.68e-07 $l=3.9e-07 $layer=LI1_cond $X=4.065 $Y=2.035
+ $X2=3.675 $Y2=2.035
r190 46 57 2.89128 $w=2.5e-07 $l=8.5e-08 $layer=LI1_cond $X=3.55 $Y=2.12
+ $X2=3.55 $Y2=2.035
r191 46 48 32.0379 $w=2.48e-07 $l=6.95e-07 $layer=LI1_cond $X=3.55 $Y=2.12
+ $X2=3.55 $Y2=2.815
r192 42 52 6.81649 $w=1.7e-07 $l=1.20208e-07 $layer=LI1_cond $X=4.065 $Y=1.085
+ $X2=4.15 $Y2=1.17
r193 42 44 31.3155 $w=1.68e-07 $l=4.8e-07 $layer=LI1_cond $X=4.065 $Y=1.085
+ $X2=3.585 $Y2=1.085
r194 39 40 60.4563 $w=1.8e-07 $l=1.5e-07 $layer=POLY_cond $X=6.227 $Y=2.095
+ $X2=6.227 $Y2=2.245
r195 36 41 415.34 $w=1.5e-07 $l=8.1e-07 $layer=POLY_cond $X=10.77 $Y=1.185
+ $X2=10.77 $Y2=1.995
r196 32 41 36.5962 $w=1.8e-07 $l=9e-08 $layer=POLY_cond $X=10.78 $Y=2.085
+ $X2=10.78 $Y2=1.995
r197 32 34 258.492 $w=1.8e-07 $l=6.65e-07 $layer=POLY_cond $X=10.78 $Y=2.085
+ $X2=10.78 $Y2=2.75
r198 30 36 26.9307 $w=1.5e-07 $l=1.06066e-07 $layer=POLY_cond $X=10.695 $Y=1.11
+ $X2=10.77 $Y2=1.185
r199 30 31 364.064 $w=1.5e-07 $l=7.1e-07 $layer=POLY_cond $X=10.695 $Y=1.11
+ $X2=9.985 $Y2=1.11
r200 27 31 26.9307 $w=1.5e-07 $l=1.06066e-07 $layer=POLY_cond $X=9.91 $Y=1.035
+ $X2=9.985 $Y2=1.11
r201 27 29 179.468 $w=1.5e-07 $l=3.5e-07 $layer=POLY_cond $X=9.91 $Y=1.035
+ $X2=9.91 $Y2=0.685
r202 26 29 220.489 $w=1.5e-07 $l=4.3e-07 $layer=POLY_cond $X=9.91 $Y=0.255
+ $X2=9.91 $Y2=0.685
r203 25 38 20.4101 $w=1.5e-07 $l=7.5e-08 $layer=POLY_cond $X=6.285 $Y=0.18
+ $X2=6.21 $Y2=0.18
r204 24 26 26.9307 $w=1.5e-07 $l=1.06066e-07 $layer=POLY_cond $X=9.835 $Y=0.18
+ $X2=9.91 $Y2=0.255
r205 24 25 1820.32 $w=1.5e-07 $l=3.55e-06 $layer=POLY_cond $X=9.835 $Y=0.18
+ $X2=6.285 $Y2=0.18
r206 23 40 105.772 $w=1.8e-07 $l=3.95e-07 $layer=POLY_cond $X=6.23 $Y=2.64
+ $X2=6.23 $Y2=2.245
r207 20 39 646.085 $w=1.5e-07 $l=1.26e-06 $layer=POLY_cond $X=6.21 $Y=0.835
+ $X2=6.21 $Y2=2.095
r208 17 38 5.30422 $w=1.5e-07 $l=7.5e-08 $layer=POLY_cond $X=6.21 $Y=0.255
+ $X2=6.21 $Y2=0.18
r209 17 20 297.404 $w=1.5e-07 $l=5.8e-07 $layer=POLY_cond $X=6.21 $Y=0.255
+ $X2=6.21 $Y2=0.835
r210 15 38 20.4101 $w=1.5e-07 $l=7.5e-08 $layer=POLY_cond $X=6.135 $Y=0.18
+ $X2=6.21 $Y2=0.18
r211 15 16 728.128 $w=1.5e-07 $l=1.42e-06 $layer=POLY_cond $X=6.135 $Y=0.18
+ $X2=4.715 $Y2=0.18
r212 12 66 21.2229 $w=1.5e-07 $l=1.65e-07 $layer=POLY_cond $X=4.64 $Y=1.34
+ $X2=4.64 $Y2=1.505
r213 12 14 246.128 $w=1.5e-07 $l=4.8e-07 $layer=POLY_cond $X=4.64 $Y=1.34
+ $X2=4.64 $Y2=0.86
r214 11 16 26.9307 $w=1.5e-07 $l=1.06066e-07 $layer=POLY_cond $X=4.64 $Y=0.255
+ $X2=4.715 $Y2=0.18
r215 11 14 310.223 $w=1.5e-07 $l=6.05e-07 $layer=POLY_cond $X=4.64 $Y=0.255
+ $X2=4.64 $Y2=0.86
r216 7 63 16.9318 $w=1.8e-07 $l=1.65e-07 $layer=POLY_cond $X=4.265 $Y=1.67
+ $X2=4.265 $Y2=1.505
r217 7 9 283.758 $w=1.8e-07 $l=7.3e-07 $layer=POLY_cond $X=4.265 $Y=1.67
+ $X2=4.265 $Y2=2.4
r218 2 57 400 $w=1.7e-07 $l=3.39853e-07 $layer=licon1_PDIFF $count=1 $X=3.445
+ $Y=1.84 $X2=3.59 $Y2=2.115
r219 2 48 400 $w=1.7e-07 $l=1.04499e-06 $layer=licon1_PDIFF $count=1 $X=3.445
+ $Y=1.84 $X2=3.59 $Y2=2.815
r220 1 44 182 $w=1.7e-07 $l=6.63551e-07 $layer=licon1_NDIFF $count=1 $X=3.44
+ $Y=0.49 $X2=3.585 $Y2=1.085
.ends

.subckt PM_SKY130_FD_SC_MS__SDFBBN_2%A_2216_410# 1 2 3 12 14 16 18 20 25 29 33
+ 37 39 40 43 47 51 54 58 59 63 65 69 71 73 76 78 84 88 90 96 98 100 104
c213 51 0 7.20841e-20 $X=11.67 $Y=0.98
c214 20 0 2.75443e-20 $X=11.67 $Y=2.05
r215 97 104 10.142 $w=3.3e-07 $l=5.8e-08 $layer=POLY_cond $X=14.65 $Y=1.595
+ $X2=14.65 $Y2=1.537
r216 96 99 8.46218 $w=3.28e-07 $l=1.65e-07 $layer=LI1_cond $X=14.65 $Y=1.595
+ $X2=14.65 $Y2=1.76