* File: sky130_fd_sc_ms__sdfbbn_1.pex.spice
* Created: Wed Sep  2 12:29:52 2020
* Program "Calibre xRC"
* Version "v2018.4_34.26"
* Nominal Temperature: 27C
* Circuit Temperature: 27C
* 
.subckt PM_SKY130_FD_SC_MS__SDFBBN_1%SCD 2 5 9 11 12 15 16
c32 5 0 8.66027e-20 $X=0.505 $Y=2.64
r33 15 17 45.1558 $w=3.75e-07 $l=1.65e-07 $layer=POLY_cond $X=0.407 $Y=1.37
+ $X2=0.407 $Y2=1.205
r34 15 16 72.64 $w=1.7e-07 $l=3.4e-07 $layer=licon1_POLY $count=2 $X=0.385
+ $Y=1.37 $X2=0.385 $Y2=1.37
r35 12 16 2.58853 $w=6.68e-07 $l=1.45e-07 $layer=LI1_cond $X=0.24 $Y=1.54
+ $X2=0.385 $Y2=1.54
r36 9 17 205.106 $w=1.5e-07 $l=4e-07 $layer=POLY_cond $X=0.52 $Y=0.805 $X2=0.52
+ $Y2=1.205
r37 5 11 297.363 $w=1.8e-07 $l=7.65e-07 $layer=POLY_cond $X=0.505 $Y=2.64
+ $X2=0.505 $Y2=1.875
r38 2 11 42.8297 $w=3.75e-07 $l=1.87e-07 $layer=POLY_cond $X=0.407 $Y=1.688
+ $X2=0.407 $Y2=1.875
r39 1 15 3.26277 $w=3.75e-07 $l=2.2e-08 $layer=POLY_cond $X=0.407 $Y=1.392
+ $X2=0.407 $Y2=1.37
r40 1 2 43.8991 $w=3.75e-07 $l=2.96e-07 $layer=POLY_cond $X=0.407 $Y=1.392
+ $X2=0.407 $Y2=1.688
.ends

.subckt PM_SKY130_FD_SC_MS__SDFBBN_1%D 1 3 8 10 11 17
c59 11 0 1.09459e-19 $X=1.68 $Y=1.665
r60 15 17 34.9723 $w=3.3e-07 $l=2e-07 $layer=POLY_cond $X=1.45 $Y=1.645 $X2=1.65
+ $Y2=1.645
r61 13 15 5.24584 $w=3.3e-07 $l=3e-08 $layer=POLY_cond $X=1.42 $Y=1.645 $X2=1.45
+ $Y2=1.645
r62 11 17 145.28 $w=1.7e-07 $l=1.7e-07 $layer=licon1_POLY $count=1 $X=1.65
+ $Y=1.645 $X2=1.65 $Y2=1.645
r63 6 15 21.2229 $w=1.5e-07 $l=1.65e-07 $layer=POLY_cond $X=1.45 $Y=1.48
+ $X2=1.45 $Y2=1.645
r64 6 8 346.117 $w=1.5e-07 $l=6.75e-07 $layer=POLY_cond $X=1.45 $Y=1.48 $X2=1.45
+ $Y2=0.805
r65 4 13 21.2229 $w=1.5e-07 $l=1.65e-07 $layer=POLY_cond $X=1.42 $Y=1.81
+ $X2=1.42 $Y2=1.645
r66 4 10 156.394 $w=1.5e-07 $l=3.05e-07 $layer=POLY_cond $X=1.42 $Y=1.81
+ $X2=1.42 $Y2=2.115
r67 1 10 37.1337 $w=1.8e-07 $l=9e-08 $layer=POLY_cond $X=1.405 $Y=2.205
+ $X2=1.405 $Y2=2.115
r68 1 3 116.483 $w=1.8e-07 $l=4.35e-07 $layer=POLY_cond $X=1.405 $Y=2.205
+ $X2=1.405 $Y2=2.64
.ends

.subckt PM_SKY130_FD_SC_MS__SDFBBN_1%A_353_93# 1 2 7 9 10 12 14 16 19 23 26 29
+ 37 40 43 44
c90 23 0 5.47294e-20 $X=2.13 $Y=2.125
c91 19 0 1.66897e-19 $X=2.13 $Y=1.165
r92 43 44 8.51103 $w=3.58e-07 $l=1.65e-07 $layer=LI1_cond $X=3.07 $Y=2.465
+ $X2=3.07 $Y2=2.3
r93 39 40 2.7938 $w=3.28e-07 $l=8e-08 $layer=LI1_cond $X=2.895 $Y=1.645
+ $X2=2.975 $Y2=1.645
r94 36 39 7.68295 $w=3.28e-07 $l=2.2e-07 $layer=LI1_cond $X=2.675 $Y=1.645
+ $X2=2.895 $Y2=1.645
r95 36 37 145.28 $w=1.7e-07 $l=1.7e-07 $layer=licon1_POLY $count=1 $X=2.675
+ $Y=1.645 $X2=2.675 $Y2=1.645
r96 31 40 4.62375 $w=1.7e-07 $l=1.65e-07 $layer=LI1_cond $X=2.975 $Y=1.81
+ $X2=2.975 $Y2=1.645
r97 31 44 31.9679 $w=1.68e-07 $l=4.9e-07 $layer=LI1_cond $X=2.975 $Y=1.81
+ $X2=2.975 $Y2=2.3
r98 27 39 0.716491 $w=3.3e-07 $l=1.65e-07 $layer=LI1_cond $X=2.895 $Y=1.48
+ $X2=2.895 $Y2=1.645
r99 27 29 23.2235 $w=3.28e-07 $l=6.65e-07 $layer=LI1_cond $X=2.895 $Y=1.48
+ $X2=2.895 $Y2=0.815
r100 25 37 82.1848 $w=3.3e-07 $l=4.7e-07 $layer=POLY_cond $X=2.205 $Y=1.645
+ $X2=2.675 $Y2=1.645
r101 25 26 5.03009 $w=3.3e-07 $l=7.5e-08 $layer=POLY_cond $X=2.205 $Y=1.645
+ $X2=2.13 $Y2=1.645
r102 17 19 148.702 $w=1.5e-07 $l=2.9e-07 $layer=POLY_cond $X=1.84 $Y=1.165
+ $X2=2.13 $Y2=1.165
r103 16 23 2.83073 $w=1.5e-07 $l=7.5e-08 $layer=POLY_cond $X=2.13 $Y=2.05
+ $X2=2.13 $Y2=2.125
r104 15 26 37.0704 $w=1.5e-07 $l=1.65e-07 $layer=POLY_cond $X=2.13 $Y=1.81
+ $X2=2.13 $Y2=1.645
r105 15 16 123.064 $w=1.5e-07 $l=2.4e-07 $layer=POLY_cond $X=2.13 $Y=1.81
+ $X2=2.13 $Y2=2.05
r106 14 26 37.0704 $w=1.5e-07 $l=1.65e-07 $layer=POLY_cond $X=2.13 $Y=1.48
+ $X2=2.13 $Y2=1.645
r107 13 19 2.83073 $w=1.5e-07 $l=7.5e-08 $layer=POLY_cond $X=2.13 $Y=1.24
+ $X2=2.13 $Y2=1.165
r108 13 14 123.064 $w=1.5e-07 $l=2.4e-07 $layer=POLY_cond $X=2.13 $Y=1.24
+ $X2=2.13 $Y2=1.48
r109 10 23 141.011 $w=1.5e-07 $l=2.75e-07 $layer=POLY_cond $X=1.855 $Y=2.125
+ $X2=2.13 $Y2=2.125
r110 10 12 117.822 $w=1.8e-07 $l=4.4e-07 $layer=POLY_cond $X=1.855 $Y=2.2
+ $X2=1.855 $Y2=2.64
r111 7 17 2.83073 $w=1.5e-07 $l=7.5e-08 $layer=POLY_cond $X=1.84 $Y=1.09
+ $X2=1.84 $Y2=1.165
r112 7 9 91.58 $w=1.5e-07 $l=2.85e-07 $layer=POLY_cond $X=1.84 $Y=1.09 $X2=1.84
+ $Y2=0.805
r113 2 43 300 $w=1.7e-07 $l=2.01494e-07 $layer=licon1_PDIFF $count=2 $X=2.95
+ $Y=2.32 $X2=3.085 $Y2=2.465
r114 1 29 182 $w=1.7e-07 $l=2.81425e-07 $layer=licon1_NDIFF $count=1 $X=2.755
+ $Y=0.595 $X2=2.895 $Y2=0.815
.ends

.subckt PM_SKY130_FD_SC_MS__SDFBBN_1%SCE 4 7 9 10 14 15 16 17 19 21 24 25 28 30
+ 33
c103 33 0 8.1544e-20 $X=0.97 $Y=1.37
c104 4 0 2.95072e-20 $X=0.91 $Y=0.805
r105 33 34 72.64 $w=1.7e-07 $l=3.4e-07 $layer=licon1_POLY $count=2 $X=0.97
+ $Y=1.37 $X2=0.97 $Y2=1.37
r106 30 34 4.10594 $w=6.68e-07 $l=2.3e-07 $layer=LI1_cond $X=1.2 $Y=1.54
+ $X2=0.97 $Y2=1.54
r107 24 33 59.4528 $w=3.3e-07 $l=3.4e-07 $layer=POLY_cond $X=0.97 $Y=1.71
+ $X2=0.97 $Y2=1.37
r108 24 25 35.4289 $w=3.3e-07 $l=1.65e-07 $layer=POLY_cond $X=0.97 $Y=1.71
+ $X2=0.97 $Y2=1.875
r109 23 33 41.8716 $w=3.3e-07 $l=1.65e-07 $layer=POLY_cond $X=0.97 $Y=1.205
+ $X2=0.97 $Y2=1.37
r110 21 28 2.83073 $w=1.5e-07 $l=7.5e-08 $layer=POLY_cond $X=3.155 $Y=2.05
+ $X2=3.155 $Y2=2.125
r111 20 21 415.34 $w=1.5e-07 $l=8.1e-07 $layer=POLY_cond $X=3.155 $Y=1.24
+ $X2=3.155 $Y2=2.05
r112 17 28 151.266 $w=1.5e-07 $l=2.95e-07 $layer=POLY_cond $X=2.86 $Y=2.125
+ $X2=3.155 $Y2=2.125
r113 17 19 117.822 $w=1.8e-07 $l=4.4e-07 $layer=POLY_cond $X=2.86 $Y=2.2
+ $X2=2.86 $Y2=2.64
r114 15 20 26.9307 $w=1.5e-07 $l=1.06066e-07 $layer=POLY_cond $X=3.08 $Y=1.165
+ $X2=3.155 $Y2=1.24
r115 15 16 166.649 $w=1.5e-07 $l=3.25e-07 $layer=POLY_cond $X=3.08 $Y=1.165
+ $X2=2.755 $Y2=1.165
r116 12 16 26.9307 $w=1.5e-07 $l=1.06066e-07 $layer=POLY_cond $X=2.68 $Y=1.09
+ $X2=2.755 $Y2=1.165
r117 12 14 146.138 $w=1.5e-07 $l=2.85e-07 $layer=POLY_cond $X=2.68 $Y=1.09
+ $X2=2.68 $Y2=0.805
r118 11 14 282.021 $w=1.5e-07 $l=5.5e-07 $layer=POLY_cond $X=2.68 $Y=0.255
+ $X2=2.68 $Y2=0.805
r119 9 11 26.9307 $w=1.5e-07 $l=1.06066e-07 $layer=POLY_cond $X=2.605 $Y=0.18
+ $X2=2.68 $Y2=0.255
r120 9 10 830.681 $w=1.5e-07 $l=1.62e-06 $layer=POLY_cond $X=2.605 $Y=0.18
+ $X2=0.985 $Y2=0.18
r121 7 25 297.363 $w=1.8e-07 $l=7.65e-07 $layer=POLY_cond $X=0.985 $Y=2.64
+ $X2=0.985 $Y2=1.875
r122 4 23 205.106 $w=1.5e-07 $l=4e-07 $layer=POLY_cond $X=0.91 $Y=0.805 $X2=0.91
+ $Y2=1.205
r123 1 10 26.9307 $w=1.5e-07 $l=1.06066e-07 $layer=POLY_cond $X=0.91 $Y=0.255
+ $X2=0.985 $Y2=0.18
r124 1 4 282.021 $w=1.5e-07 $l=5.5e-07 $layer=POLY_cond $X=0.91 $Y=0.255
+ $X2=0.91 $Y2=0.805
.ends

.subckt PM_SKY130_FD_SC_MS__SDFBBN_1%CLK_N 3 7 9 13 16
c42 7 0 1.13863e-19 $X=3.87 $Y=2.4
c43 3 0 1.60531e-19 $X=3.67 $Y=0.78
r44 15 16 34.9723 $w=3.3e-07 $l=2e-07 $layer=POLY_cond $X=3.67 $Y=1.515 $X2=3.87
+ $Y2=1.515
r45 12 15 6.12014 $w=3.3e-07 $l=3.5e-08 $layer=POLY_cond $X=3.635 $Y=1.515
+ $X2=3.67 $Y2=1.515
r46 12 13 145.28 $w=1.7e-07 $l=1.7e-07 $layer=licon1_POLY $count=1 $X=3.635
+ $Y=1.515 $X2=3.635 $Y2=1.515
r47 9 13 5.23838 $w=3.28e-07 $l=1.5e-07 $layer=LI1_cond $X=3.635 $Y=1.665
+ $X2=3.635 $Y2=1.515
r48 5 16 16.9318 $w=1.8e-07 $l=1.65e-07 $layer=POLY_cond $X=3.87 $Y=1.68
+ $X2=3.87 $Y2=1.515
r49 5 7 279.871 $w=1.8e-07 $l=7.2e-07 $layer=POLY_cond $X=3.87 $Y=1.68 $X2=3.87
+ $Y2=2.4
r50 1 15 21.2229 $w=1.5e-07 $l=1.65e-07 $layer=POLY_cond $X=3.67 $Y=1.35
+ $X2=3.67 $Y2=1.515
r51 1 3 292.277 $w=1.5e-07 $l=5.7e-07 $layer=POLY_cond $X=3.67 $Y=1.35 $X2=3.67
+ $Y2=0.78
.ends

.subckt PM_SKY130_FD_SC_MS__SDFBBN_1%A_977_243# 1 2 3 12 13 14 16 20 24 28 30 31
+ 37 40 42 43 46 48 49 53 57 58 61 62 68 69 71 74 78
c201 61 0 7.4272e-20 $X=5.05 $Y=2.13
c202 58 0 1.73041e-20 $X=9.365 $Y=1.795
c203 57 0 1.73394e-19 $X=9.365 $Y=1.795
c204 31 0 1.49471e-19 $X=5.05 $Y=1.755
c205 28 0 1.99515e-19 $X=9.44 $Y=2.54
c206 20 0 8.96875e-20 $X=5.68 $Y=0.805
c207 14 0 1.01056e-19 $X=5.33 $Y=2.295
r208 76 78 3.904 $w=2.5e-07 $l=8e-08 $layer=LI1_cond $X=8.662 $Y=2.395 $X2=8.662
+ $Y2=2.475
r209 75 76 8.784 $w=2.5e-07 $l=1.8e-07 $layer=LI1_cond $X=8.662 $Y=2.215
+ $X2=8.662 $Y2=2.395
r210 71 73 10.5575 $w=3.28e-07 $l=2.25e-07 $layer=LI1_cond $X=7.925 $Y=0.855
+ $X2=7.925 $Y2=1.08
r211 67 69 8.89604 $w=4.23e-07 $l=1.7e-07 $layer=LI1_cond $X=7.335 $Y=2.862
+ $X2=7.505 $Y2=2.862
r212 67 68 15.404 $w=4.23e-07 $l=4.1e-07 $layer=LI1_cond $X=7.335 $Y=2.862
+ $X2=6.925 $Y2=2.862
r213 61 64 3.47907 $w=2.63e-07 $l=8e-08 $layer=LI1_cond $X=5.082 $Y=2.13
+ $X2=5.082 $Y2=2.21
r214 61 62 145.28 $w=1.7e-07 $l=1.7e-07 $layer=licon1_POLY $count=1 $X=5.05
+ $Y=2.13 $X2=5.05 $Y2=2.13
r215 58 82 40.6903 $w=3.3e-07 $l=1.65e-07 $layer=POLY_cond $X=9.365 $Y=1.795
+ $X2=9.365 $Y2=1.96
r216 58 81 46.2115 $w=3.3e-07 $l=1.65e-07 $layer=POLY_cond $X=9.365 $Y=1.795
+ $X2=9.365 $Y2=1.63
r217 57 58 145.28 $w=1.7e-07 $l=1.7e-07 $layer=licon1_POLY $count=1 $X=9.365
+ $Y=1.795 $X2=9.365 $Y2=1.795
r218 55 57 11.699 $w=3.28e-07 $l=3.35e-07 $layer=LI1_cond $X=9.365 $Y=2.13
+ $X2=9.365 $Y2=1.795
r219 54 75 2.99516 $w=1.7e-07 $l=1.68e-07 $layer=LI1_cond $X=8.83 $Y=2.215
+ $X2=8.662 $Y2=2.215
r220 53 55 7.76618 $w=1.7e-07 $l=2.03101e-07 $layer=LI1_cond $X=9.2 $Y=2.215
+ $X2=9.365 $Y2=2.13
r221 53 54 24.139 $w=1.68e-07 $l=3.7e-07 $layer=LI1_cond $X=9.2 $Y=2.215
+ $X2=8.83 $Y2=2.215
r222 50 74 1.34256 $w=1.7e-07 $l=8.5e-08 $layer=LI1_cond $X=7.93 $Y=2.395
+ $X2=7.845 $Y2=2.395
r223 49 76 2.99516 $w=1.7e-07 $l=1.67e-07 $layer=LI1_cond $X=8.495 $Y=2.395
+ $X2=8.662 $Y2=2.395
r224 49 50 36.861 $w=1.68e-07 $l=5.65e-07 $layer=LI1_cond $X=8.495 $Y=2.395
+ $X2=7.93 $Y2=2.395
r225 47 74 5.16603 $w=1.7e-07 $l=8.5e-08 $layer=LI1_cond $X=7.845 $Y=2.48
+ $X2=7.845 $Y2=2.395
r226 47 48 11.0909 $w=1.68e-07 $l=1.7e-07 $layer=LI1_cond $X=7.845 $Y=2.48
+ $X2=7.845 $Y2=2.65
r227 46 74 5.16603 $w=1.7e-07 $l=8.5e-08 $layer=LI1_cond $X=7.845 $Y=2.31
+ $X2=7.845 $Y2=2.395
r228 46 73 80.246 $w=1.68e-07 $l=1.23e-06 $layer=LI1_cond $X=7.845 $Y=2.31
+ $X2=7.845 $Y2=1.08
r229 43 48 6.81649 $w=1.7e-07 $l=1.20208e-07 $layer=LI1_cond $X=7.76 $Y=2.735
+ $X2=7.845 $Y2=2.65
r230 43 69 16.6364 $w=1.68e-07 $l=2.55e-07 $layer=LI1_cond $X=7.76 $Y=2.735
+ $X2=7.505 $Y2=2.735
r231 42 68 85.7914 $w=1.68e-07 $l=1.315e-06 $layer=LI1_cond $X=5.61 $Y=2.99
+ $X2=6.925 $Y2=2.99
r232 40 42 6.81649 $w=1.7e-07 $l=1.20208e-07 $layer=LI1_cond $X=5.525 $Y=2.905
+ $X2=5.61 $Y2=2.99
r233 39 40 39.7968 $w=1.68e-07 $l=6.1e-07 $layer=LI1_cond $X=5.525 $Y=2.295
+ $X2=5.525 $Y2=2.905
r234 38 64 3.33486 $w=1.7e-07 $l=1.33e-07 $layer=LI1_cond $X=5.215 $Y=2.21
+ $X2=5.082 $Y2=2.21
r235 37 39 6.81649 $w=1.7e-07 $l=1.20208e-07 $layer=LI1_cond $X=5.44 $Y=2.21
+ $X2=5.525 $Y2=2.295
r236 37 38 14.6791 $w=1.68e-07 $l=2.25e-07 $layer=LI1_cond $X=5.44 $Y=2.21
+ $X2=5.215 $Y2=2.21
r237 33 62 2.62292 $w=3.3e-07 $l=1.5e-08 $layer=POLY_cond $X=5.05 $Y=2.145
+ $X2=5.05 $Y2=2.13
r238 30 62 36.7209 $w=3.3e-07 $l=2.1e-07 $layer=POLY_cond $X=5.05 $Y=1.92
+ $X2=5.05 $Y2=2.13
r239 30 31 46.2115 $w=3.3e-07 $l=1.65e-07 $layer=POLY_cond $X=5.05 $Y=1.92
+ $X2=5.05 $Y2=1.755
r240 28 82 225.452 $w=1.8e-07 $l=5.8e-07 $layer=POLY_cond $X=9.44 $Y=2.54
+ $X2=9.44 $Y2=1.96
r241 24 81 389.702 $w=1.5e-07 $l=7.6e-07 $layer=POLY_cond $X=9.305 $Y=0.87
+ $X2=9.305 $Y2=1.63
r242 18 20 210.234 $w=1.5e-07 $l=4.1e-07 $layer=POLY_cond $X=5.68 $Y=1.215
+ $X2=5.68 $Y2=0.805
r243 14 33 143.574 $w=1.5e-07 $l=2.8e-07 $layer=POLY_cond $X=5.33 $Y=2.22
+ $X2=5.05 $Y2=2.22
r244 14 16 155.484 $w=1.8e-07 $l=4e-07 $layer=POLY_cond $X=5.33 $Y=2.295
+ $X2=5.33 $Y2=2.695
r245 12 18 26.9307 $w=1.5e-07 $l=1.06066e-07 $layer=POLY_cond $X=5.605 $Y=1.29
+ $X2=5.68 $Y2=1.215
r246 12 13 292.277 $w=1.5e-07 $l=5.7e-07 $layer=POLY_cond $X=5.605 $Y=1.29
+ $X2=5.035 $Y2=1.29
r247 10 13 26.9307 $w=1.5e-07 $l=1.06066e-07 $layer=POLY_cond $X=4.96 $Y=1.365
+ $X2=5.035 $Y2=1.29
r248 10 31 199.979 $w=1.5e-07 $l=3.9e-07 $layer=POLY_cond $X=4.96 $Y=1.365
+ $X2=4.96 $Y2=1.755
r249 3 78 300 $w=1.7e-07 $l=4.17073e-07 $layer=licon1_PDIFF $count=2 $X=8.525
+ $Y=2.12 $X2=8.66 $Y2=2.475
r250 2 67 600 $w=1.7e-07 $l=8.00125e-07 $layer=licon1_PDIFF $count=1 $X=7.025
+ $Y=2.12 $X2=7.335 $Y2=2.78
r251 1 71 182 $w=1.7e-07 $l=3.60555e-07 $layer=licon1_NDIFF $count=1 $X=7.685
+ $Y=0.595 $X2=7.925 $Y2=0.855
.ends

.subckt PM_SKY130_FD_SC_MS__SDFBBN_1%A_867_82# 1 2 9 13 17 21 23 26 28 31 36 38
+ 39 45 46 47 50 51 57 58 61 68 78 79
c221 79 0 1.01056e-19 $X=5.755 $Y=1.727
c222 68 0 3.86106e-20 $X=9.905 $Y=1.775
c223 26 0 1.13863e-19 $X=4.58 $Y=2.04
c224 23 0 1.60531e-19 $X=4.61 $Y=1.045
c225 21 0 3.18534e-20 $X=10.745 $Y=0.805
c226 13 0 2.29882e-20 $X=6.47 $Y=0.805
r227 68 71 40.6903 $w=3.3e-07 $l=1.65e-07 $layer=POLY_cond $X=9.905 $Y=1.775
+ $X2=9.905 $Y2=1.94
r228 61 63 20.6118 $w=3.04e-07 $l=1.3e-07 $layer=POLY_cond $X=5.59 $Y=1.74
+ $X2=5.72 $Y2=1.74
r229 58 68 145.28 $w=1.7e-07 $l=1.7e-07 $layer=licon1_POLY $count=1 $X=9.905
+ $Y=1.775 $X2=9.905 $Y2=1.775
r230 57 58 9.3 $w=1.7e-07 $l=1.7e-07 $layer=mcon $count=1 $X=9.84 $Y=1.665
+ $X2=9.84 $Y2=1.665
r231 54 79 8.65129 $w=3.53e-07 $l=2.35e-07 $layer=LI1_cond $X=5.52 $Y=1.727
+ $X2=5.755 $Y2=1.727
r232 54 78 6.8759 $w=3.53e-07 $l=1.15e-07 $layer=LI1_cond $X=5.52 $Y=1.727
+ $X2=5.405 $Y2=1.727
r233 54 61 145.28 $w=1.7e-07 $l=1.7e-07 $layer=licon1_POLY $count=1 $X=5.59
+ $Y=1.74 $X2=5.59 $Y2=1.74
r234 53 54 9.3 $w=1.7e-07 $l=1.7e-07 $layer=mcon $count=1 $X=5.52 $Y=1.665
+ $X2=5.52 $Y2=1.665
r235 51 53 0.115467 $w=2.3e-07 $l=1.45e-07 $layer=MET1_cond $X=5.665 $Y=1.665
+ $X2=5.52 $Y2=1.665
r236 50 57 0.115467 $w=2.3e-07 $l=1.45e-07 $layer=MET1_cond $X=9.695 $Y=1.665
+ $X2=9.84 $Y2=1.665
r237 50 51 4.98761 $w=1.4e-07 $l=4.03e-06 $layer=MET1_cond $X=9.695 $Y=1.665
+ $X2=5.665 $Y2=1.665
r238 49 58 3.67446 $w=3.43e-07 $l=1.1e-07 $layer=LI1_cond $X=9.897 $Y=1.555
+ $X2=9.897 $Y2=1.665
r239 47 79 28.8111 $w=2.48e-07 $l=6.25e-07 $layer=LI1_cond $X=6.38 $Y=1.675
+ $X2=5.755 $Y2=1.675
r240 46 65 46.2115 $w=3.3e-07 $l=1.65e-07 $layer=POLY_cond $X=6.545 $Y=1.635
+ $X2=6.545 $Y2=1.47
r241 45 47 6.46688 $w=3.28e-07 $l=1.65e-07 $layer=LI1_cond $X=6.545 $Y=1.635
+ $X2=6.38 $Y2=1.635
r242 45 46 145.28 $w=1.7e-07 $l=1.7e-07 $layer=licon1_POLY $count=1 $X=6.545
+ $Y=1.635 $X2=6.545 $Y2=1.635
r243 41 43 16.9064 $w=2.67e-07 $l=3.7e-07 $layer=LI1_cond $X=4.61 $Y=1.635
+ $X2=4.61 $Y2=2.005
r244 39 73 46.2115 $w=3.3e-07 $l=1.65e-07 $layer=POLY_cond $X=10.835 $Y=1.41
+ $X2=10.835 $Y2=1.245
r245 38 39 145.28 $w=1.7e-07 $l=1.7e-07 $layer=licon1_POLY $count=1 $X=10.835
+ $Y=1.41 $X2=10.835 $Y2=1.41
r246 36 49 6.87075 $w=2.95e-07 $l=2.35654e-07 $layer=LI1_cond $X=10.07 $Y=1.407
+ $X2=9.897 $Y2=1.555
r247 36 38 29.8854 $w=2.93e-07 $l=7.65e-07 $layer=LI1_cond $X=10.07 $Y=1.407
+ $X2=10.835 $Y2=1.407
r248 33 41 3.37873 $w=1.7e-07 $l=1.8e-07 $layer=LI1_cond $X=4.79 $Y=1.635
+ $X2=4.61 $Y2=1.635
r249 33 78 40.123 $w=1.68e-07 $l=6.15e-07 $layer=LI1_cond $X=4.79 $Y=1.635
+ $X2=5.405 $Y2=1.635
r250 31 41 5.1848 $w=2.67e-07 $l=1.25499e-07 $layer=LI1_cond $X=4.7 $Y=1.55
+ $X2=4.61 $Y2=1.635
r251 30 31 23.4141 $w=1.78e-07 $l=3.8e-07 $layer=LI1_cond $X=4.7 $Y=1.17 $X2=4.7
+ $Y2=1.55
r252 26 43 2.41973 $w=4e-07 $l=4.7697e-08 $layer=LI1_cond $X=4.58 $Y=2.04
+ $X2=4.61 $Y2=2.005
r253 26 28 22.3286 $w=3.98e-07 $l=7.75e-07 $layer=LI1_cond $X=4.58 $Y=2.04
+ $X2=4.58 $Y2=2.815
r254 23 30 7.0541 $w=2.5e-07 $l=1.63936e-07 $layer=LI1_cond $X=4.61 $Y=1.045
+ $X2=4.7 $Y2=1.17
r255 23 25 2.928 $w=2.5e-07 $l=6e-08 $layer=LI1_cond $X=4.61 $Y=1.045 $X2=4.55
+ $Y2=1.045
r256 21 73 225.617 $w=1.5e-07 $l=4.4e-07 $layer=POLY_cond $X=10.745 $Y=0.805
+ $X2=10.745 $Y2=1.245
r257 17 71 233.226 $w=1.8e-07 $l=6e-07 $layer=POLY_cond $X=9.83 $Y=2.54 $X2=9.83
+ $Y2=1.94
r258 13 65 340.989 $w=1.5e-07 $l=6.65e-07 $layer=POLY_cond $X=6.47 $Y=0.805
+ $X2=6.47 $Y2=1.47
r259 7 63 15.0262 $w=1.8e-07 $l=1.65e-07 $layer=POLY_cond $X=5.72 $Y=1.905
+ $X2=5.72 $Y2=1.74
r260 7 9 307.081 $w=1.8e-07 $l=7.9e-07 $layer=POLY_cond $X=5.72 $Y=1.905
+ $X2=5.72 $Y2=2.695
r261 2 43 400 $w=1.7e-07 $l=2.22486e-07 $layer=licon1_PDIFF $count=1 $X=4.41
+ $Y=1.84 $X2=4.545 $Y2=2.005
r262 2 28 400 $w=1.7e-07 $l=1.04031e-06 $layer=licon1_PDIFF $count=1 $X=4.41
+ $Y=1.84 $X2=4.545 $Y2=2.815
r263 1 25 182 $w=1.7e-07 $l=6.94226e-07 $layer=licon1_NDIFF $count=1 $X=4.335
+ $Y=0.41 $X2=4.55 $Y2=1.005
.ends

.subckt PM_SKY130_FD_SC_MS__SDFBBN_1%A_1162_497# 1 2 7 8 11 13 15 17 20 22 24 25
+ 29 30 31
c90 25 0 8.96875e-20 $X=6.42 $Y=1.215
c91 8 0 2.87426e-20 $X=7.25 $Y=1.33
r92 31 33 19.511 $w=2.72e-07 $l=4.35e-07 $layer=LI1_cond $X=6.03 $Y=2.055
+ $X2=6.03 $Y2=2.49
r93 29 30 72.64 $w=1.7e-07 $l=3.4e-07 $layer=licon1_POLY $count=2 $X=7.085
+ $Y=1.42 $X2=7.085 $Y2=1.42
r94 27 29 19.2074 $w=3.28e-07 $l=5.5e-07 $layer=LI1_cond $X=7.085 $Y=1.97
+ $X2=7.085 $Y2=1.42
r95 26 29 4.1907 $w=3.28e-07 $l=1.2e-07 $layer=LI1_cond $X=7.085 $Y=1.3
+ $X2=7.085 $Y2=1.42
r96 24 26 7.76618 $w=1.7e-07 $l=2.03101e-07 $layer=LI1_cond $X=6.92 $Y=1.215
+ $X2=7.085 $Y2=1.3
r97 24 25 32.6203 $w=1.68e-07 $l=5e-07 $layer=LI1_cond $X=6.92 $Y=1.215 $X2=6.42
+ $Y2=1.215
r98 23 31 3.48705 $w=1.7e-07 $l=1.65e-07 $layer=LI1_cond $X=6.195 $Y=2.055
+ $X2=6.03 $Y2=2.055
r99 22 27 7.76618 $w=1.7e-07 $l=2.03101e-07 $layer=LI1_cond $X=6.92 $Y=2.055
+ $X2=7.085 $Y2=1.97
r100 22 23 47.2995 $w=1.68e-07 $l=7.25e-07 $layer=LI1_cond $X=6.92 $Y=2.055
+ $X2=6.195 $Y2=2.055
r101 18 25 7.14316 $w=1.7e-07 $l=1.62019e-07 $layer=LI1_cond $X=6.295 $Y=1.13
+ $X2=6.42 $Y2=1.215
r102 18 20 14.5208 $w=2.48e-07 $l=3.15e-07 $layer=LI1_cond $X=6.295 $Y=1.13
+ $X2=6.295 $Y2=0.815
r103 16 30 2.62292 $w=3.3e-07 $l=1.5e-08 $layer=POLY_cond $X=7.085 $Y=1.405
+ $X2=7.085 $Y2=1.42
r104 13 17 18.8402 $w=1.65e-07 $l=8.87412e-08 $layer=POLY_cond $X=7.61 $Y=1.255
+ $X2=7.58 $Y2=1.33
r105 13 15 123.713 $w=1.5e-07 $l=3.85e-07 $layer=POLY_cond $X=7.61 $Y=1.255
+ $X2=7.61 $Y2=0.87
r106 9 17 18.8402 $w=1.65e-07 $l=8.21584e-08 $layer=POLY_cond $X=7.565 $Y=1.405
+ $X2=7.58 $Y2=1.33
r107 9 11 441.185 $w=1.8e-07 $l=1.135e-06 $layer=POLY_cond $X=7.565 $Y=1.405
+ $X2=7.565 $Y2=2.54
r108 8 16 32.1775 $w=1.5e-07 $l=1.98997e-07 $layer=POLY_cond $X=7.25 $Y=1.33
+ $X2=7.085 $Y2=1.405
r109 7 17 6.66866 $w=1.5e-07 $l=1.05e-07 $layer=POLY_cond $X=7.475 $Y=1.33
+ $X2=7.58 $Y2=1.33
r110 7 8 115.372 $w=1.5e-07 $l=2.25e-07 $layer=POLY_cond $X=7.475 $Y=1.33
+ $X2=7.25 $Y2=1.33
r111 2 33 600 $w=1.7e-07 $l=2.22486e-07 $layer=licon1_PDIFF $count=1 $X=5.81
+ $Y=2.485 $X2=6.03 $Y2=2.49
r112 1 20 182 $w=1.7e-07 $l=2.81425e-07 $layer=licon1_NDIFF $count=1 $X=6.115
+ $Y=0.595 $X2=6.255 $Y2=0.815
.ends

.subckt PM_SKY130_FD_SC_MS__SDFBBN_1%A_1579_258# 1 2 9 13 15 17 18 20 22 25 26
+ 27 28 31 32 33 34 37 40 42 44 46 50 52 56 63
c192 56 0 9.562e-20 $X=12.365 $Y=1.215
c193 46 0 1.37209e-19 $X=8.265 $Y=1.375
c194 42 0 7.63376e-20 $X=13.78 $Y=1.915
c195 20 0 2.82259e-19 $X=12.47 $Y=2.46
c196 13 0 4.35224e-20 $X=8.14 $Y=0.87
c197 9 0 3.27703e-19 $X=7.985 $Y=2.54
r198 65 67 27.1035 $w=3.3e-07 $l=1.55e-07 $layer=POLY_cond $X=7.985 $Y=1.455
+ $X2=8.14 $Y2=1.455
r199 62 63 8.15508 $w=1.68e-07 $l=1.25e-07 $layer=LI1_cond $X=13.695 $Y=1.215
+ $X2=13.82 $Y2=1.215
r200 59 60 145.28 $w=1.7e-07 $l=1.7e-07 $layer=licon1_POLY $count=1 $X=12.365
+ $Y=1.385 $X2=12.365 $Y2=1.385
r201 56 59 5.93683 $w=3.28e-07 $l=1.7e-07 $layer=LI1_cond $X=12.365 $Y=1.215
+ $X2=12.365 $Y2=1.385
r202 52 54 14.0267 $w=1.68e-07 $l=2.15e-07 $layer=LI1_cond $X=10.835 $Y=0.45
+ $X2=10.835 $Y2=0.665
r203 50 67 21.8577 $w=3.3e-07 $l=1.25e-07 $layer=POLY_cond $X=8.265 $Y=1.455
+ $X2=8.14 $Y2=1.455
r204 49 50 145.28 $w=1.7e-07 $l=1.7e-07 $layer=licon1_POLY $count=1 $X=8.265
+ $Y=1.455 $X2=8.265 $Y2=1.455
r205 46 49 2.7938 $w=3.28e-07 $l=8e-08 $layer=LI1_cond $X=8.265 $Y=1.375
+ $X2=8.265 $Y2=1.455
r206 42 44 4.14879 $w=2.48e-07 $l=9e-08 $layer=LI1_cond $X=13.78 $Y=1.915
+ $X2=13.87 $Y2=1.915
r207 38 63 0.716491 $w=1.7e-07 $l=8.5e-08 $layer=LI1_cond $X=13.82 $Y=1.13
+ $X2=13.82 $Y2=1.215
r208 38 40 15.0053 $w=1.68e-07 $l=2.3e-07 $layer=LI1_cond $X=13.82 $Y=1.13
+ $X2=13.82 $Y2=0.9
r209 37 42 7.14316 $w=2.5e-07 $l=1.62019e-07 $layer=LI1_cond $X=13.695 $Y=1.79
+ $X2=13.78 $Y2=1.915
r210 36 62 0.716491 $w=1.7e-07 $l=8.5e-08 $layer=LI1_cond $X=13.695 $Y=1.3
+ $X2=13.695 $Y2=1.215
r211 36 37 31.9679 $w=1.68e-07 $l=4.9e-07 $layer=LI1_cond $X=13.695 $Y=1.3
+ $X2=13.695 $Y2=1.79
r212 35 56 4.62375 $w=1.7e-07 $l=1.65e-07 $layer=LI1_cond $X=12.53 $Y=1.215
+ $X2=12.365 $Y2=1.215
r213 34 62 5.54545 $w=1.68e-07 $l=8.5e-08 $layer=LI1_cond $X=13.61 $Y=1.215
+ $X2=13.695 $Y2=1.215
r214 34 35 70.4599 $w=1.68e-07 $l=1.08e-06 $layer=LI1_cond $X=13.61 $Y=1.215
+ $X2=12.53 $Y2=1.215
r215 32 56 4.62375 $w=1.7e-07 $l=1.65e-07 $layer=LI1_cond $X=12.2 $Y=1.215
+ $X2=12.365 $Y2=1.215
r216 32 33 33.9251 $w=1.68e-07 $l=5.2e-07 $layer=LI1_cond $X=12.2 $Y=1.215
+ $X2=11.68 $Y2=1.215
r217 31 33 6.81649 $w=1.7e-07 $l=1.20208e-07 $layer=LI1_cond $X=11.595 $Y=1.13
+ $X2=11.68 $Y2=1.215
r218 30 31 24.7914 $w=1.68e-07 $l=3.8e-07 $layer=LI1_cond $X=11.595 $Y=0.75
+ $X2=11.595 $Y2=1.13
r219 29 54 0.716491 $w=1.7e-07 $l=8.5e-08 $layer=LI1_cond $X=10.92 $Y=0.665
+ $X2=10.835 $Y2=0.665
r220 28 30 6.81649 $w=1.7e-07 $l=1.20208e-07 $layer=LI1_cond $X=11.51 $Y=0.665
+ $X2=11.595 $Y2=0.75
r221 28 29 38.492 $w=1.68e-07 $l=5.9e-07 $layer=LI1_cond $X=11.51 $Y=0.665
+ $X2=10.92 $Y2=0.665
r222 26 52 0.716491 $w=1.7e-07 $l=8.5e-08 $layer=LI1_cond $X=10.75 $Y=0.45
+ $X2=10.835 $Y2=0.45
r223 26 27 77.9626 $w=1.68e-07 $l=1.195e-06 $layer=LI1_cond $X=10.75 $Y=0.45
+ $X2=9.555 $Y2=0.45
r224 24 27 6.81649 $w=1.7e-07 $l=1.20208e-07 $layer=LI1_cond $X=9.47 $Y=0.535
+ $X2=9.555 $Y2=0.45
r225 24 25 49.2567 $w=1.68e-07 $l=7.55e-07 $layer=LI1_cond $X=9.47 $Y=0.535
+ $X2=9.47 $Y2=1.29
r226 23 46 4.62375 $w=1.7e-07 $l=1.65e-07 $layer=LI1_cond $X=8.43 $Y=1.375
+ $X2=8.265 $Y2=1.375
r227 22 25 6.81649 $w=1.7e-07 $l=1.20208e-07 $layer=LI1_cond $X=9.385 $Y=1.375
+ $X2=9.47 $Y2=1.29
r228 22 23 62.3048 $w=1.68e-07 $l=9.55e-07 $layer=LI1_cond $X=9.385 $Y=1.375
+ $X2=8.43 $Y2=1.375
r229 18 60 34.0194 $w=3.43e-07 $l=2.05122e-07 $layer=POLY_cond $X=12.47 $Y=1.55
+ $X2=12.38 $Y2=1.385
r230 18 20 353.726 $w=1.8e-07 $l=9.1e-07 $layer=POLY_cond $X=12.47 $Y=1.55
+ $X2=12.47 $Y2=2.46
r231 15 60 38.7084 $w=3.43e-07 $l=1.94808e-07 $layer=POLY_cond $X=12.315 $Y=1.22
+ $X2=12.38 $Y2=1.385
r232 15 17 154.24 $w=1.5e-07 $l=4.8e-07 $layer=POLY_cond $X=12.315 $Y=1.22
+ $X2=12.315 $Y2=0.74
r233 11 67 21.2229 $w=1.5e-07 $l=1.65e-07 $layer=POLY_cond $X=8.14 $Y=1.29
+ $X2=8.14 $Y2=1.455
r234 11 13 215.362 $w=1.5e-07 $l=4.2e-07 $layer=POLY_cond $X=8.14 $Y=1.29
+ $X2=8.14 $Y2=0.87
r235 7 65 16.9318 $w=1.8e-07 $l=1.65e-07 $layer=POLY_cond $X=7.985 $Y=1.62
+ $X2=7.985 $Y2=1.455
r236 7 9 357.613 $w=1.8e-07 $l=9.2e-07 $layer=POLY_cond $X=7.985 $Y=1.62
+ $X2=7.985 $Y2=2.54
r237 2 44 600 $w=1.7e-07 $l=3.34739e-07 $layer=licon1_PDIFF $count=1 $X=13.6
+ $Y=1.73 $X2=13.87 $Y2=1.875
r238 1 40 182 $w=1.7e-07 $l=2.73038e-07 $layer=licon1_NDIFF $count=1 $X=13.675
+ $Y=0.69 $X2=13.82 $Y2=0.9
.ends

.subckt PM_SKY130_FD_SC_MS__SDFBBN_1%SET_B 1 3 6 10 14 16 17 20 22 25 30 31
c135 25 0 1.37209e-19 $X=8.745 $Y=1.82
c136 22 0 1.50853e-19 $X=11.76 $Y=2.035
c137 20 0 1.79798e-19 $X=8.4 $Y=2.035
c138 16 0 4.36058e-20 $X=11.615 $Y=2.035
c139 10 0 9.77748e-20 $X=11.85 $Y=2.46
c140 6 0 1.76028e-19 $X=8.745 $Y=0.87
r141 31 37 13.969 $w=3.28e-07 $l=4e-07 $layer=LI1_cond $X=11.795 $Y=1.635
+ $X2=11.795 $Y2=2.035
r142 30 33 40.6903 $w=3.3e-07 $l=1.65e-07 $layer=POLY_cond $X=11.795 $Y=1.635
+ $X2=11.795 $Y2=1.8
r143 30 32 46.2115 $w=3.3e-07 $l=1.65e-07 $layer=POLY_cond $X=11.795 $Y=1.635
+ $X2=11.795 $Y2=1.47
r144 30 31 145.28 $w=1.7e-07 $l=1.7e-07 $layer=licon1_POLY $count=1 $X=11.795
+ $Y=1.635 $X2=11.795 $Y2=1.635
r145 27 28 145.28 $w=1.7e-07 $l=1.7e-07 $layer=licon1_POLY $count=1 $X=8.825
+ $Y=1.795 $X2=8.825 $Y2=1.795
r146 25 27 14.4419 $w=2.67e-07 $l=8e-08 $layer=POLY_cond $X=8.745 $Y=1.82
+ $X2=8.825 $Y2=1.82
r147 22 37 9.3 $w=1.7e-07 $l=1.7e-07 $layer=mcon $count=1 $X=11.76 $Y=2.035
+ $X2=11.76 $Y2=2.035
r148 20 28 17.4579 $w=2.97e-07 $l=4.25e-07 $layer=LI1_cond $X=8.4 $Y=1.885
+ $X2=8.825 $Y2=1.885
r149 19 20 9.3 $w=1.7e-07 $l=1.7e-07 $layer=mcon $count=1 $X=8.4 $Y=2.035
+ $X2=8.4 $Y2=2.035
r150 17 19 0.115467 $w=2.3e-07 $l=1.45e-07 $layer=MET1_cond $X=8.545 $Y=2.035
+ $X2=8.4 $Y2=2.035
r151 16 22 0.115467 $w=2.3e-07 $l=1.45e-07 $layer=MET1_cond $X=11.615 $Y=2.035
+ $X2=11.76 $Y2=2.035
r152 16 17 3.7995 $w=1.4e-07 $l=3.07e-06 $layer=MET1_cond $X=11.615 $Y=2.035
+ $X2=8.545 $Y2=2.035
r153 14 32 374.319 $w=1.5e-07 $l=7.3e-07 $layer=POLY_cond $X=11.885 $Y=0.74
+ $X2=11.885 $Y2=1.47
r154 10 33 256.548 $w=1.8e-07 $l=6.6e-07 $layer=POLY_cond $X=11.85 $Y=2.46
+ $X2=11.85 $Y2=1.8
r155 4 25 16.2448 $w=1.5e-07 $l=1.9e-07 $layer=POLY_cond $X=8.745 $Y=1.63
+ $X2=8.745 $Y2=1.82
r156 4 6 389.702 $w=1.5e-07 $l=7.6e-07 $layer=POLY_cond $X=8.745 $Y=1.63
+ $X2=8.745 $Y2=0.87
r157 1 25 55.9625 $w=2.67e-07 $l=3.937e-07 $layer=POLY_cond $X=8.435 $Y=2.01
+ $X2=8.745 $Y2=1.82
r158 1 3 141.922 $w=1.8e-07 $l=5.3e-07 $layer=POLY_cond $X=8.435 $Y=2.01
+ $X2=8.435 $Y2=2.54
.ends

.subckt PM_SKY130_FD_SC_MS__SDFBBN_1%A_662_82# 1 2 10 13 15 16 20 22 23 25 27 31
+ 32 33 34 36 40 42 47 48 52 54 56 59 61 67 68
c186 68 0 1.27434e-19 $X=4.335 $Y=1.505
c187 67 0 1.49471e-19 $X=4.335 $Y=1.505
c188 40 0 4.28297e-20 $X=6.04 $Y=0.18
c189 34 0 3.8609e-20 $X=10.365 $Y=2.27
c190 32 0 1.94296e-19 $X=10.28 $Y=1.295
c191 13 0 7.4272e-20 $X=4.32 $Y=2.4
r192 68 72 40.6903 $w=3.3e-07 $l=1.65e-07 $layer=POLY_cond $X=4.335 $Y=1.505
+ $X2=4.335 $Y2=1.67
r193 68 71 46.2115 $w=3.3e-07 $l=1.65e-07 $layer=POLY_cond $X=4.335 $Y=1.505
+ $X2=4.335 $Y2=1.34
r194 67 68 145.28 $w=1.7e-07 $l=1.7e-07 $layer=licon1_POLY $count=1 $X=4.335
+ $Y=1.505 $X2=4.335 $Y2=1.505
r195 64 67 9.7783 $w=3.28e-07 $l=2.8e-07 $layer=LI1_cond $X=4.055 $Y=1.505
+ $X2=4.335 $Y2=1.505
r196 60 64 4.62375 $w=1.7e-07 $l=1.65e-07 $layer=LI1_cond $X=4.055 $Y=1.67
+ $X2=4.055 $Y2=1.505
r197 60 61 18.2674 $w=1.68e-07 $l=2.8e-07 $layer=LI1_cond $X=4.055 $Y=1.67
+ $X2=4.055 $Y2=1.95
r198 59 64 4.62375 $w=1.7e-07 $l=1.65e-07 $layer=LI1_cond $X=4.055 $Y=1.34
+ $X2=4.055 $Y2=1.505
r199 58 59 11.0909 $w=1.68e-07 $l=1.7e-07 $layer=LI1_cond $X=4.055 $Y=1.17
+ $X2=4.055 $Y2=1.34
r200 57 63 4.25188 $w=1.7e-07 $l=1.25e-07 $layer=LI1_cond $X=3.73 $Y=2.035
+ $X2=3.605 $Y2=2.035
r201 56 61 6.81649 $w=1.7e-07 $l=1.20208e-07 $layer=LI1_cond $X=3.97 $Y=2.035
+ $X2=4.055 $Y2=1.95
r202 56 57 15.6578 $w=1.68e-07 $l=2.4e-07 $layer=LI1_cond $X=3.97 $Y=2.035
+ $X2=3.73 $Y2=2.035
r203 52 63 2.89128 $w=2.5e-07 $l=8.5e-08 $layer=LI1_cond $X=3.605 $Y=2.12
+ $X2=3.605 $Y2=2.035
r204 52 54 32.0379 $w=2.48e-07 $l=6.95e-07 $layer=LI1_cond $X=3.605 $Y=2.12
+ $X2=3.605 $Y2=2.815
r205 48 58 7.14316 $w=2.5e-07 $l=1.62019e-07 $layer=LI1_cond $X=3.97 $Y=1.045
+ $X2=4.055 $Y2=1.17
r206 48 50 23.7403 $w=2.48e-07 $l=5.15e-07 $layer=LI1_cond $X=3.97 $Y=1.045
+ $X2=3.455 $Y2=1.045
r207 41 42 48.5235 $w=2.05e-07 $l=1.5e-07 $layer=POLY_cond $X=6.067 $Y=1.09
+ $X2=6.067 $Y2=1.24
r208 38 47 415.34 $w=1.5e-07 $l=8.1e-07 $layer=POLY_cond $X=10.355 $Y=1.37
+ $X2=10.355 $Y2=2.18
r209 34 47 36.5962 $w=1.8e-07 $l=9e-08 $layer=POLY_cond $X=10.365 $Y=2.27
+ $X2=10.365 $Y2=2.18
r210 34 36 186.581 $w=1.8e-07 $l=4.8e-07 $layer=POLY_cond $X=10.365 $Y=2.27
+ $X2=10.365 $Y2=2.75
r211 32 38 26.9307 $w=1.5e-07 $l=1.06066e-07 $layer=POLY_cond $X=10.28 $Y=1.295
+ $X2=10.355 $Y2=1.37
r212 32 33 261.511 $w=1.5e-07 $l=5.1e-07 $layer=POLY_cond $X=10.28 $Y=1.295
+ $X2=9.77 $Y2=1.295
r213 29 33 26.9307 $w=1.5e-07 $l=1.06066e-07 $layer=POLY_cond $X=9.695 $Y=1.22
+ $X2=9.77 $Y2=1.295
r214 29 31 179.468 $w=1.5e-07 $l=3.5e-07 $layer=POLY_cond $X=9.695 $Y=1.22
+ $X2=9.695 $Y2=0.87
r215 28 31 315.351 $w=1.5e-07 $l=6.15e-07 $layer=POLY_cond $X=9.695 $Y=0.255
+ $X2=9.695 $Y2=0.87
r216 25 43 82.0426 $w=1.5e-07 $l=1.6e-07 $layer=POLY_cond $X=6.255 $Y=2.115
+ $X2=6.095 $Y2=2.115
r217 25 27 105.772 $w=1.8e-07 $l=3.95e-07 $layer=POLY_cond $X=6.255 $Y=2.19
+ $X2=6.255 $Y2=2.585
r218 24 40 20.4101 $w=1.5e-07 $l=7.5e-08 $layer=POLY_cond $X=6.115 $Y=0.18
+ $X2=6.04 $Y2=0.18
r219 23 28 26.9307 $w=1.5e-07 $l=1.06066e-07 $layer=POLY_cond $X=9.62 $Y=0.18
+ $X2=9.695 $Y2=0.255
r220 23 24 1797.24 $w=1.5e-07 $l=3.505e-06 $layer=POLY_cond $X=9.62 $Y=0.18
+ $X2=6.115 $Y2=0.18
r221 22 43 2.83073 $w=1.5e-07 $l=7.5e-08 $layer=POLY_cond $X=6.095 $Y=2.04
+ $X2=6.095 $Y2=2.115
r222 22 42 410.213 $w=1.5e-07 $l=8e-07 $layer=POLY_cond $X=6.095 $Y=2.04
+ $X2=6.095 $Y2=1.24
r223 20 41 146.138 $w=1.5e-07 $l=2.85e-07 $layer=POLY_cond $X=6.04 $Y=0.805
+ $X2=6.04 $Y2=1.09
r224 17 40 5.30422 $w=1.5e-07 $l=7.5e-08 $layer=POLY_cond $X=6.04 $Y=0.255
+ $X2=6.04 $Y2=0.18
r225 17 20 282.021 $w=1.5e-07 $l=5.5e-07 $layer=POLY_cond $X=6.04 $Y=0.255
+ $X2=6.04 $Y2=0.805
r226 15 40 20.4101 $w=1.5e-07 $l=7.5e-08 $layer=POLY_cond $X=5.965 $Y=0.18
+ $X2=6.04 $Y2=0.18
r227 15 16 835.809 $w=1.5e-07 $l=1.63e-06 $layer=POLY_cond $X=5.965 $Y=0.18
+ $X2=4.335 $Y2=0.18
r228 13 72 283.758 $w=1.8e-07 $l=7.3e-07 $layer=POLY_cond $X=4.32 $Y=2.4
+ $X2=4.32 $Y2=1.67
r229 10 71 287.149 $w=1.5e-07 $l=5.6e-07 $layer=POLY_cond $X=4.26 $Y=0.78
+ $X2=4.26 $Y2=1.34
r230 7 16 26.9307 $w=1.5e-07 $l=1.06066e-07 $layer=POLY_cond $X=4.26 $Y=0.255
+ $X2=4.335 $Y2=0.18
r231 7 10 269.202 $w=1.5e-07 $l=5.25e-07 $layer=POLY_cond $X=4.26 $Y=0.255
+ $X2=4.26 $Y2=0.78
r232 2 63 400 $w=1.7e-07 $l=3.39853e-07 $layer=licon1_PDIFF $count=1 $X=3.5
+ $Y=1.84 $X2=3.645 $Y2=2.115
r233 2 54 400 $w=1.7e-07 $l=1.04499e-06 $layer=licon1_PDIFF $count=1 $X=3.5
+ $Y=1.84 $X2=3.645 $Y2=2.815
r234 1 50 182 $w=1.7e-07 $l=6.63551e-07 $layer=licon1_NDIFF $count=1 $X=3.31
+ $Y=0.41 $X2=3.455 $Y2=1.005
.ends

.subckt PM_SKY130_FD_SC_MS__SDFBBN_1%A_2133_410# 1 2 3 12 14 18 22 26 28 32 36
+ 38 41 45 46 48 50 51 52 55 56 57 59 60 61 65 68 69 71 78 80 82 90
c239 50 0 1.31405e-19 $X=13.115 $Y=2.38
c240 26 0 1.65234e-19 $X=14.785 $Y=0.74
r241 89 90 28.3072 $w=3.3e-07 $l=1.5e-07 $layer=POLY_cond $X=14.785 $Y=1.465
+ $X2=14.935 $Y2=1.465
r242 79 89 2.62292 $w=3.3e-07 $l=1.5e-08 $layer=POLY_cond $X=14.77 $Y=1.465
+ $X2=14.785 $Y2=1.465
r243 79 86 3.49723 $w=3.3e-07 $l=2e-08 $layer=POLY_cond $X=14.77 $Y=1.465
+ $X2=14.75 $Y2=1.465