* File: sky130_fd_sc_ms__buf_16.pex.spice
* Created: Wed Sep  2 11:59:15 2020
* Program "Calibre xRC"
* Version "v2018.4_34.26"
* Nominal Temperature: 27C
* Circuit Temperature: 27C
* 
.subckt PM_SKY130_FD_SC_MS__BUF_16%A_83_260# 1 2 3 4 5 6 21 25 29 33 37 41 45 49
+ 53 57 61 65 69 73 77 81 85 89 93 97 101 105 109 113 117 121 125 129 133 137
+ 141 145 147 148 149 150 153 157 159 161 165 169 171 173 175 177 181 186 187
+ 189 190 216 217 226 233 240 247 254 261 268 272
c469 272 0 8.31019e-20 $X=7.38 $Y=1.465
c470 216 0 8.59108e-19 $X=7.505 $Y=1.665
r471 271 272 13.1146 $w=3.3e-07 $l=7.5e-08 $layer=POLY_cond $X=7.305 $Y=1.465
+ $X2=7.38 $Y2=1.465
r472 270 271 62.0758 $w=3.3e-07 $l=3.55e-07 $layer=POLY_cond $X=6.95 $Y=1.465
+ $X2=7.305 $Y2=1.465
r473 269 270 16.6118 $w=3.3e-07 $l=9.5e-08 $layer=POLY_cond $X=6.855 $Y=1.465
+ $X2=6.95 $Y2=1.465
r474 267 269 33.2236 $w=3.3e-07 $l=1.9e-07 $layer=POLY_cond $X=6.665 $Y=1.465
+ $X2=6.855 $Y2=1.465
r475 267 268 145.28 $w=1.7e-07 $l=1.7e-07 $layer=licon1_POLY $count=1 $X=6.665
+ $Y=1.465 $X2=6.665 $Y2=1.465
r476 265 267 45.4639 $w=3.3e-07 $l=2.6e-07 $layer=POLY_cond $X=6.405 $Y=1.465
+ $X2=6.665 $Y2=1.465
r477 264 265 4.37153 $w=3.3e-07 $l=2.5e-08 $layer=POLY_cond $X=6.38 $Y=1.465
+ $X2=6.405 $Y2=1.465
r478 263 264 74.316 $w=3.3e-07 $l=4.25e-07 $layer=POLY_cond $X=5.955 $Y=1.465
+ $X2=6.38 $Y2=1.465
r479 262 263 0.874306 $w=3.3e-07 $l=5e-09 $layer=POLY_cond $X=5.95 $Y=1.465
+ $X2=5.955 $Y2=1.465
r480 260 262 36.7209 $w=3.3e-07 $l=2.1e-07 $layer=POLY_cond $X=5.74 $Y=1.465
+ $X2=5.95 $Y2=1.465
r481 260 261 145.28 $w=1.7e-07 $l=1.7e-07 $layer=licon1_POLY $count=1 $X=5.74
+ $Y=1.465 $X2=5.74 $Y2=1.465
r482 258 260 41.0924 $w=3.3e-07 $l=2.35e-07 $layer=POLY_cond $X=5.505 $Y=1.465
+ $X2=5.74 $Y2=1.465
r483 257 258 21.8577 $w=3.3e-07 $l=1.25e-07 $layer=POLY_cond $X=5.38 $Y=1.465
+ $X2=5.505 $Y2=1.465
r484 256 257 56.8299 $w=3.3e-07 $l=3.25e-07 $layer=POLY_cond $X=5.055 $Y=1.465
+ $X2=5.38 $Y2=1.465
r485 255 256 18.3604 $w=3.3e-07 $l=1.05e-07 $layer=POLY_cond $X=4.95 $Y=1.465
+ $X2=5.055 $Y2=1.465
r486 253 255 40.2181 $w=3.3e-07 $l=2.3e-07 $layer=POLY_cond $X=4.72 $Y=1.465
+ $X2=4.95 $Y2=1.465
r487 253 254 145.28 $w=1.7e-07 $l=1.7e-07 $layer=licon1_POLY $count=1 $X=4.72
+ $Y=1.465 $X2=4.72 $Y2=1.465
r488 251 253 20.109 $w=3.3e-07 $l=1.15e-07 $layer=POLY_cond $X=4.605 $Y=1.465
+ $X2=4.72 $Y2=1.465
r489 250 251 39.3438 $w=3.3e-07 $l=2.25e-07 $layer=POLY_cond $X=4.38 $Y=1.465
+ $X2=4.605 $Y2=1.465
r490 249 250 39.3438 $w=3.3e-07 $l=2.25e-07 $layer=POLY_cond $X=4.155 $Y=1.465
+ $X2=4.38 $Y2=1.465
r491 248 249 35.8466 $w=3.3e-07 $l=2.05e-07 $layer=POLY_cond $X=3.95 $Y=1.465
+ $X2=4.155 $Y2=1.465
r492 246 248 15.7375 $w=3.3e-07 $l=9e-08 $layer=POLY_cond $X=3.86 $Y=1.465
+ $X2=3.95 $Y2=1.465
r493 246 247 145.28 $w=1.7e-07 $l=1.7e-07 $layer=licon1_POLY $count=1 $X=3.86
+ $Y=1.465 $X2=3.86 $Y2=1.465
r494 244 246 27.1035 $w=3.3e-07 $l=1.55e-07 $layer=POLY_cond $X=3.705 $Y=1.465
+ $X2=3.86 $Y2=1.465
r495 243 244 32.3493 $w=3.3e-07 $l=1.85e-07 $layer=POLY_cond $X=3.52 $Y=1.465
+ $X2=3.705 $Y2=1.465
r496 242 243 46.3382 $w=3.3e-07 $l=2.65e-07 $layer=POLY_cond $X=3.255 $Y=1.465
+ $X2=3.52 $Y2=1.465
r497 241 242 28.8521 $w=3.3e-07 $l=1.65e-07 $layer=POLY_cond $X=3.09 $Y=1.465
+ $X2=3.255 $Y2=1.465
r498 239 241 16.6118 $w=3.3e-07 $l=9.5e-08 $layer=POLY_cond $X=2.995 $Y=1.465
+ $X2=3.09 $Y2=1.465
r499 239 240 145.28 $w=1.7e-07 $l=1.7e-07 $layer=licon1_POLY $count=1 $X=2.995
+ $Y=1.465 $X2=2.995 $Y2=1.465
r500 237 239 33.2236 $w=3.3e-07 $l=1.9e-07 $layer=POLY_cond $X=2.805 $Y=1.465
+ $X2=2.995 $Y2=1.465
r501 236 237 25.3549 $w=3.3e-07 $l=1.45e-07 $layer=POLY_cond $X=2.66 $Y=1.465
+ $X2=2.805 $Y2=1.465
r502 235 236 53.3327 $w=3.3e-07 $l=3.05e-07 $layer=POLY_cond $X=2.355 $Y=1.465
+ $X2=2.66 $Y2=1.465
r503 234 235 21.8577 $w=3.3e-07 $l=1.25e-07 $layer=POLY_cond $X=2.23 $Y=1.465
+ $X2=2.355 $Y2=1.465
r504 232 234 34.0979 $w=3.3e-07 $l=1.95e-07 $layer=POLY_cond $X=2.035 $Y=1.465
+ $X2=2.23 $Y2=1.465
r505 232 233 145.28 $w=1.7e-07 $l=1.7e-07 $layer=licon1_POLY $count=1 $X=2.035
+ $Y=1.465 $X2=2.035 $Y2=1.465
r506 230 232 31.475 $w=3.3e-07 $l=1.8e-07 $layer=POLY_cond $X=1.855 $Y=1.465
+ $X2=2.035 $Y2=1.465
r507 229 230 9.61737 $w=3.3e-07 $l=5.5e-08 $layer=POLY_cond $X=1.8 $Y=1.465
+ $X2=1.855 $Y2=1.465
r508 228 229 69.0702 $w=3.3e-07 $l=3.95e-07 $layer=POLY_cond $X=1.405 $Y=1.465
+ $X2=1.8 $Y2=1.465
r509 227 228 6.12014 $w=3.3e-07 $l=3.5e-08 $layer=POLY_cond $X=1.37 $Y=1.465
+ $X2=1.405 $Y2=1.465
r510 225 227 38.4695 $w=3.3e-07 $l=2.2e-07 $layer=POLY_cond $X=1.15 $Y=1.465
+ $X2=1.37 $Y2=1.465
r511 225 226 145.28 $w=1.7e-07 $l=1.7e-07 $layer=licon1_POLY $count=1 $X=1.15
+ $Y=1.465 $X2=1.15 $Y2=1.465
r512 223 225 34.0979 $w=3.3e-07 $l=1.95e-07 $layer=POLY_cond $X=0.955 $Y=1.465
+ $X2=1.15 $Y2=1.465
r513 222 223 2.62292 $w=3.3e-07 $l=1.5e-08 $layer=POLY_cond $X=0.94 $Y=1.465
+ $X2=0.955 $Y2=1.465
r514 221 222 75.1904 $w=3.3e-07 $l=4.3e-07 $layer=POLY_cond $X=0.51 $Y=1.465
+ $X2=0.94 $Y2=1.465
r515 219 221 0.874306 $w=3.3e-07 $l=5e-09 $layer=POLY_cond $X=0.505 $Y=1.465
+ $X2=0.51 $Y2=1.465
r516 216 217 9.3 $w=1.7e-07 $l=1.7e-07 $layer=mcon $count=1 $X=7.505 $Y=1.665
+ $X2=7.505 $Y2=1.665
r517 214 268 7.43512 $w=3.08e-07 $l=2e-07 $layer=LI1_cond $X=6.655 $Y=1.665
+ $X2=6.655 $Y2=1.465
r518 213 216 0.548572 $w=2.3e-07 $l=8.55e-07 $layer=MET1_cond $X=6.65 $Y=1.665
+ $X2=7.505 $Y2=1.665
r519 213 214 9.3 $w=1.7e-07 $l=1.7e-07 $layer=mcon $count=1 $X=6.65 $Y=1.665
+ $X2=6.65 $Y2=1.665
r520 211 261 7.43512 $w=3.08e-07 $l=2e-07 $layer=LI1_cond $X=5.735 $Y=1.665
+ $X2=5.735 $Y2=1.465
r521 210 213 0.587068 $w=2.3e-07 $l=9.15e-07 $layer=MET1_cond $X=5.735 $Y=1.665
+ $X2=6.65 $Y2=1.665
r522 210 211 9.3 $w=1.7e-07 $l=1.7e-07 $layer=mcon $count=1 $X=5.735 $Y=1.665
+ $X2=5.735 $Y2=1.665
r523 208 254 8.21549 $w=2.97e-07 $l=2e-07 $layer=LI1_cond $X=4.71 $Y=1.665
+ $X2=4.71 $Y2=1.465
r524 207 210 0.622356 $w=2.3e-07 $l=9.7e-07 $layer=MET1_cond $X=4.765 $Y=1.665
+ $X2=5.735 $Y2=1.665
r525 207 208 9.3 $w=1.7e-07 $l=1.7e-07 $layer=mcon $count=1 $X=4.765 $Y=1.665
+ $X2=4.765 $Y2=1.665
r526 205 247 6.61247 $w=3.69e-07 $l=2e-07 $layer=LI1_cond $X=3.85 $Y=1.665
+ $X2=3.85 $Y2=1.465
r527 204 207 0.564612 $w=2.3e-07 $l=8.8e-07 $layer=MET1_cond $X=3.885 $Y=1.665
+ $X2=4.765 $Y2=1.665
r528 204 205 9.3 $w=1.7e-07 $l=1.7e-07 $layer=mcon $count=1 $X=3.885 $Y=1.665
+ $X2=3.885 $Y2=1.665
r529 202 240 7.81317 $w=2.93e-07 $l=2e-07 $layer=LI1_cond $X=2.992 $Y=1.665
+ $X2=2.992 $Y2=1.465
r530 201 204 0.571028 $w=2.3e-07 $l=8.9e-07 $layer=MET1_cond $X=2.995 $Y=1.665
+ $X2=3.885 $Y2=1.665
r531 201 202 9.3 $w=1.7e-07 $l=1.7e-07 $layer=mcon $count=1 $X=2.995 $Y=1.665
+ $X2=2.995 $Y2=1.665
r532 199 233 8.08732 $w=2.83e-07 $l=2e-07 $layer=LI1_cond $X=2.032 $Y=1.665
+ $X2=2.032 $Y2=1.465
r533 198 201 0.61594 $w=2.3e-07 $l=9.6e-07 $layer=MET1_cond $X=2.035 $Y=1.665
+ $X2=2.995 $Y2=1.665
r534 198 199 9.3 $w=1.7e-07 $l=1.7e-07 $layer=mcon $count=1 $X=2.035 $Y=1.665
+ $X2=2.035 $Y2=1.665
r535 195 226 7.43512 $w=3.08e-07 $l=2e-07 $layer=LI1_cond $X=1.14 $Y=1.665
+ $X2=1.14 $Y2=1.465
r536 194 198 0.574236 $w=2.3e-07 $l=8.95e-07 $layer=MET1_cond $X=1.14 $Y=1.665
+ $X2=2.035 $Y2=1.665
r537 194 195 9.3 $w=1.7e-07 $l=1.7e-07 $layer=mcon $count=1 $X=1.14 $Y=1.665
+ $X2=1.14 $Y2=1.665
r538 184 217 18.5936 $w=1.68e-07 $l=2.85e-07 $layer=LI1_cond $X=7.505 $Y=1.95
+ $X2=7.505 $Y2=1.665
r539 183 217 31.6417 $w=1.68e-07 $l=4.85e-07 $layer=LI1_cond $X=7.505 $Y=1.18
+ $X2=7.505 $Y2=1.665
r540 179 181 22.8184 $w=2.48e-07 $l=4.95e-07 $layer=LI1_cond $X=9.82 $Y=1.01
+ $X2=9.82 $Y2=0.515
r541 175 192 2.6405 $w=3.3e-07 $l=8.5e-08 $layer=LI1_cond $X=9.83 $Y=2.12
+ $X2=9.83 $Y2=2.035
r542 175 177 24.2711 $w=3.28e-07 $l=6.95e-07 $layer=LI1_cond $X=9.83 $Y=2.12
+ $X2=9.83 $Y2=2.815
r543 174 189 8.61065 $w=1.7e-07 $l=1.65e-07 $layer=LI1_cond $X=9.095 $Y=2.035
+ $X2=8.93 $Y2=2.035
r544 173 192 5.12568 $w=1.7e-07 $l=1.65e-07 $layer=LI1_cond $X=9.665 $Y=2.035
+ $X2=9.83 $Y2=2.035
r545 173 174 37.1872 $w=1.68e-07 $l=5.7e-07 $layer=LI1_cond $X=9.665 $Y=2.035
+ $X2=9.095 $Y2=2.035
r546 172 190 5.16603 $w=1.7e-07 $l=8.5e-08 $layer=LI1_cond $X=8.97 $Y=1.095
+ $X2=8.885 $Y2=1.095
r547 171 179 7.14316 $w=1.7e-07 $l=1.62019e-07 $layer=LI1_cond $X=9.695 $Y=1.095
+ $X2=9.82 $Y2=1.01
r548 171 172 47.2995 $w=1.68e-07 $l=7.25e-07 $layer=LI1_cond $X=9.695 $Y=1.095
+ $X2=8.97 $Y2=1.095
r549 167 190 1.34256 $w=1.7e-07 $l=8.5e-08 $layer=LI1_cond $X=8.885 $Y=1.01
+ $X2=8.885 $Y2=1.095
r550 167 169 32.2941 $w=1.68e-07 $l=4.95e-07 $layer=LI1_cond $X=8.885 $Y=1.01
+ $X2=8.885 $Y2=0.515
r551 163 189 0.89609 $w=3.3e-07 $l=8.5e-08 $layer=LI1_cond $X=8.93 $Y=2.12
+ $X2=8.93 $Y2=2.035
r552 163 165 24.2711 $w=3.28e-07 $l=6.95e-07 $layer=LI1_cond $X=8.93 $Y=2.12
+ $X2=8.93 $Y2=2.815
r553 162 186 8.61065 $w=1.7e-07 $l=1.65e-07 $layer=LI1_cond $X=8.195 $Y=2.035
+ $X2=8.03 $Y2=2.035
r554 161 189 8.61065 $w=1.7e-07 $l=1.65e-07 $layer=LI1_cond $X=8.765 $Y=2.035
+ $X2=8.93 $Y2=2.035
r555 161 162 37.1872 $w=1.68e-07 $l=5.7e-07 $layer=LI1_cond $X=8.765 $Y=2.035
+ $X2=8.195 $Y2=2.035
r556 160 187 5.16603 $w=1.7e-07 $l=8.5e-08 $layer=LI1_cond $X=8.11 $Y=1.095
+ $X2=8.025 $Y2=1.095
r557 159 190 5.16603 $w=1.7e-07 $l=8.5e-08 $layer=LI1_cond $X=8.8 $Y=1.095
+ $X2=8.885 $Y2=1.095
r558 159 160 45.016 $w=1.68e-07 $l=6.9e-07 $layer=LI1_cond $X=8.8 $Y=1.095
+ $X2=8.11 $Y2=1.095
r559 155 187 1.34256 $w=1.7e-07 $l=8.5e-08 $layer=LI1_cond $X=8.025 $Y=1.01
+ $X2=8.025 $Y2=1.095
r560 155 157 32.2941 $w=1.68e-07 $l=4.95e-07 $layer=LI1_cond $X=8.025 $Y=1.01
+ $X2=8.025 $Y2=0.515
r561 151 186 0.89609 $w=3.3e-07 $l=8.5e-08 $layer=LI1_cond $X=8.03 $Y=2.12
+ $X2=8.03 $Y2=2.035
r562 151 153 24.2711 $w=3.28e-07 $l=6.95e-07 $layer=LI1_cond $X=8.03 $Y=2.12
+ $X2=8.03 $Y2=2.815
r563 150 184 6.81649 $w=1.7e-07 $l=1.20208e-07 $layer=LI1_cond $X=7.59 $Y=2.035
+ $X2=7.505 $Y2=1.95
r564 149 186 8.61065 $w=1.7e-07 $l=1.65e-07 $layer=LI1_cond $X=7.865 $Y=2.035
+ $X2=8.03 $Y2=2.035
r565 149 150 17.9412 $w=1.68e-07 $l=2.75e-07 $layer=LI1_cond $X=7.865 $Y=2.035
+ $X2=7.59 $Y2=2.035
r566 148 183 6.81649 $w=1.7e-07 $l=1.20208e-07 $layer=LI1_cond $X=7.59 $Y=1.095
+ $X2=7.505 $Y2=1.18
r567 147 187 5.16603 $w=1.7e-07 $l=8.5e-08 $layer=LI1_cond $X=7.94 $Y=1.095
+ $X2=8.025 $Y2=1.095
r568 147 148 22.8342 $w=1.68e-07 $l=3.5e-07 $layer=LI1_cond $X=7.94 $Y=1.095
+ $X2=7.59 $Y2=1.095
r569 143 272 21.2229 $w=1.5e-07 $l=1.65e-07 $layer=POLY_cond $X=7.38 $Y=1.3
+ $X2=7.38 $Y2=1.465
r570 143 145 287.149 $w=1.5e-07 $l=5.6e-07 $layer=POLY_cond $X=7.38 $Y=1.3
+ $X2=7.38 $Y2=0.74
r571 139 271 16.9318 $w=1.8e-07 $l=1.65e-07 $layer=POLY_cond $X=7.305 $Y=1.63
+ $X2=7.305 $Y2=1.465
r572 139 141 299.306 $w=1.8e-07 $l=7.7e-07 $layer=POLY_cond $X=7.305 $Y=1.63
+ $X2=7.305 $Y2=2.4
r573 135 270 21.2229 $w=1.5e-07 $l=1.65e-07 $layer=POLY_cond $X=6.95 $Y=1.3
+ $X2=6.95 $Y2=1.465
r574 135 137 287.149 $w=1.5e-07 $l=5.6e-07 $layer=POLY_cond $X=6.95 $Y=1.3
+ $X2=6.95 $Y2=0.74
r575 131 269 16.9318 $w=1.8e-07 $l=1.65e-07 $layer=POLY_cond $X=6.855 $Y=1.63
+ $X2=6.855 $Y2=1.465
r576 131 133 299.306 $w=1.8e-07 $l=7.7e-07 $layer=POLY_cond $X=6.855 $Y=1.63
+ $X2=6.855 $Y2=2.4
r577 127 265 16.9318 $w=1.8e-07 $l=1.65e-07 $layer=POLY_cond $X=6.405 $Y=1.63
+ $X2=6.405 $Y2=1.465
r578 127 129 299.306 $w=1.8e-07 $l=7.7e-07 $layer=POLY_cond $X=6.405 $Y=1.63
+ $X2=6.405 $Y2=2.4
r579 123 264 21.2229 $w=1.5e-07 $l=1.65e-07 $layer=POLY_cond $X=6.38 $Y=1.3
+ $X2=6.38 $Y2=1.465
r580 123 125 287.149 $w=1.5e-07 $l=5.6e-07 $layer=POLY_cond $X=6.38 $Y=1.3
+ $X2=6.38 $Y2=0.74
r581 119 262 21.2229 $w=1.5e-07 $l=1.65e-07 $layer=POLY_cond $X=5.95 $Y=1.3
+ $X2=5.95 $Y2=1.465
r582 119 121 287.149 $w=1.5e-07 $l=5.6e-07 $layer=POLY_cond $X=5.95 $Y=1.3
+ $X2=5.95 $Y2=0.74
r583 115 263 16.9318 $w=1.8e-07 $l=1.65e-07 $layer=POLY_cond $X=5.955 $Y=1.63
+ $X2=5.955 $Y2=1.465
r584 115 117 299.306 $w=1.8e-07 $l=7.7e-07 $layer=POLY_cond $X=5.955 $Y=1.63
+ $X2=5.955 $Y2=2.4
r585 111 258 16.9318 $w=1.8e-07 $l=1.65e-07 $layer=POLY_cond $X=5.505 $Y=1.63
+ $X2=5.505 $Y2=1.465
r586 111 113 299.306 $w=1.8e-07 $l=7.7e-07 $layer=POLY_cond $X=5.505 $Y=1.63
+ $X2=5.505 $Y2=2.4
r587 107 257 21.2229 $w=1.5e-07 $l=1.65e-07 $layer=POLY_cond $X=5.38 $Y=1.3
+ $X2=5.38 $Y2=1.465
r588 107 109 287.149 $w=1.5e-07 $l=5.6e-07 $layer=POLY_cond $X=5.38 $Y=1.3
+ $X2=5.38 $Y2=0.74
r589 103 256 16.9318 $w=1.8e-07 $l=1.65e-07 $layer=POLY_cond $X=5.055 $Y=1.63
+ $X2=5.055 $Y2=1.465
r590 103 105 299.306 $w=1.8e-07 $l=7.7e-07 $layer=POLY_cond $X=5.055 $Y=1.63
+ $X2=5.055 $Y2=2.4
r591 99 255 21.2229 $w=1.5e-07 $l=1.65e-07 $layer=POLY_cond $X=4.95 $Y=1.3
+ $X2=4.95 $Y2=1.465
r592 99 101 287.149 $w=1.5e-07 $l=5.6e-07 $layer=POLY_cond $X=4.95 $Y=1.3
+ $X2=4.95 $Y2=0.74
r593 95 251 16.9318 $w=1.8e-07 $l=1.65e-07 $layer=POLY_cond $X=4.605 $Y=1.63
+ $X2=4.605 $Y2=1.465
r594 95 97 299.306 $w=1.8e-07 $l=7.7e-07 $layer=POLY_cond $X=4.605 $Y=1.63
+ $X2=4.605 $Y2=2.4
r595 91 250 21.2229 $w=1.5e-07 $l=1.65e-07 $layer=POLY_cond $X=4.38 $Y=1.3
+ $X2=4.38 $Y2=1.465
r596 91 93 287.149 $w=1.5e-07 $l=5.6e-07 $layer=POLY_cond $X=4.38 $Y=1.3
+ $X2=4.38 $Y2=0.74
r597 87 249 16.9318 $w=1.8e-07 $l=1.65e-07 $layer=POLY_cond $X=4.155 $Y=1.63
+ $X2=4.155 $Y2=1.465
r598 87 89 299.306 $w=1.8e-07 $l=7.7e-07 $layer=POLY_cond $X=4.155 $Y=1.63
+ $X2=4.155 $Y2=2.4
r599 83 248 21.2229 $w=1.5e-07 $l=1.65e-07 $layer=POLY_cond $X=3.95 $Y=1.3
+ $X2=3.95 $Y2=1.465
r600 83 85 287.149 $w=1.5e-07 $l=5.6e-07 $layer=POLY_cond $X=3.95 $Y=1.3
+ $X2=3.95 $Y2=0.74
r601 79 244 16.9318 $w=1.8e-07 $l=1.65e-07 $layer=POLY_cond $X=3.705 $Y=1.63
+ $X2=3.705 $Y2=1.465
r602 79 81 299.306 $w=1.8e-07 $l=7.7e-07 $layer=POLY_cond $X=3.705 $Y=1.63
+ $X2=3.705 $Y2=2.4
r603 75 243 21.2229 $w=1.5e-07 $l=1.65e-07 $layer=POLY_cond $X=3.52 $Y=1.3
+ $X2=3.52 $Y2=1.465
r604 75 77 287.149 $w=1.5e-07 $l=5.6e-07 $layer=POLY_cond $X=3.52 $Y=1.3
+ $X2=3.52 $Y2=0.74
r605 71 242 16.9318 $w=1.8e-07 $l=1.65e-07 $layer=POLY_cond $X=3.255 $Y=1.63
+ $X2=3.255 $Y2=1.465
r606 71 73 299.306 $w=1.8e-07 $l=7.7e-07 $layer=POLY_cond $X=3.255 $Y=1.63
+ $X2=3.255 $Y2=2.4
r607 67 241 21.2229 $w=1.5e-07 $l=1.65e-07 $layer=POLY_cond $X=3.09 $Y=1.3
+ $X2=3.09 $Y2=1.465
r608 67 69 287.149 $w=1.5e-07 $l=5.6e-07 $layer=POLY_cond $X=3.09 $Y=1.3
+ $X2=3.09 $Y2=0.74
r609 63 237 16.9318 $w=1.8e-07 $l=1.65e-07 $layer=POLY_cond $X=2.805 $Y=1.63
+ $X2=2.805 $Y2=1.465
r610 63 65 299.306 $w=1.8e-07 $l=7.7e-07 $layer=POLY_cond $X=2.805 $Y=1.63
+ $X2=2.805 $Y2=2.4
r611 59 236 21.2229 $w=1.5e-07 $l=1.65e-07 $layer=POLY_cond $X=2.66 $Y=1.3
+ $X2=2.66 $Y2=1.465
r612 59 61 287.149 $w=1.5e-07 $l=5.6e-07 $layer=POLY_cond $X=2.66 $Y=1.3
+ $X2=2.66 $Y2=0.74
r613 55 235 16.9318 $w=1.8e-07 $l=1.65e-07 $layer=POLY_cond $X=2.355 $Y=1.63
+ $X2=2.355 $Y2=1.465
r614 55 57 299.306 $w=1.8e-07 $l=7.7e-07 $layer=POLY_cond $X=2.355 $Y=1.63
+ $X2=2.355 $Y2=2.4
r615 51 234 21.2229 $w=1.5e-07 $l=1.65e-07 $layer=POLY_cond $X=2.23 $Y=1.3
+ $X2=2.23 $Y2=1.465
r616 51 53 287.149 $w=1.5e-07 $l=5.6e-07 $layer=POLY_cond $X=2.23 $Y=1.3
+ $X2=2.23 $Y2=0.74
r617 47 230 16.9318 $w=1.8e-07 $l=1.65e-07 $layer=POLY_cond $X=1.855 $Y=1.63
+ $X2=1.855 $Y2=1.465
r618 47 49 299.306 $w=1.8e-07 $l=7.7e-07 $layer=POLY_cond $X=1.855 $Y=1.63
+ $X2=1.855 $Y2=2.4
r619 43 229 21.2229 $w=1.5e-07 $l=1.65e-07 $layer=POLY_cond $X=1.8 $Y=1.3
+ $X2=1.8 $Y2=1.465
r620 43 45 287.149 $w=1.5e-07 $l=5.6e-07 $layer=POLY_cond $X=1.8 $Y=1.3 $X2=1.8
+ $Y2=0.74
r621 39 228 16.9318 $w=1.8e-07 $l=1.65e-07 $layer=POLY_cond $X=1.405 $Y=1.63
+ $X2=1.405 $Y2=1.465
r622 39 41 299.306 $w=1.8e-07 $l=7.7e-07 $layer=POLY_cond $X=1.405 $Y=1.63
+ $X2=1.405 $Y2=2.4
r623 35 227 21.2229 $w=1.5e-07 $l=1.65e-07 $layer=POLY_cond $X=1.37 $Y=1.3
+ $X2=1.37 $Y2=1.465
r624 35 37 287.149 $w=1.5e-07 $l=5.6e-07 $layer=POLY_cond $X=1.37 $Y=1.3
+ $X2=1.37 $Y2=0.74
r625 31 223 16.9318 $w=1.8e-07 $l=1.65e-07 $layer=POLY_cond $X=0.955 $Y=1.63
+ $X2=0.955 $Y2=1.465
r626 31 33 299.306 $w=1.8e-07 $l=7.7e-07 $layer=POLY_cond $X=0.955 $Y=1.63
+ $X2=0.955 $Y2=2.4
r627 27 222 21.2229 $w=1.5e-07 $l=1.65e-07 $layer=POLY_cond $X=0.94 $Y=1.3
+ $X2=0.94 $Y2=1.465
r628 27 29 287.149 $w=1.5e-07 $l=5.6e-07 $layer=POLY_cond $X=0.94 $Y=1.3
+ $X2=0.94 $Y2=0.74
r629 23 221 21.2229 $w=1.5e-07 $l=1.65e-07 $layer=POLY_cond $X=0.51 $Y=1.3
+ $X2=0.51 $Y2=1.465
r630 23 25 287.149 $w=1.5e-07 $l=5.6e-07 $layer=POLY_cond $X=0.51 $Y=1.3
+ $X2=0.51 $Y2=0.74
r631 19 219 16.9318 $w=1.8e-07 $l=1.65e-07 $layer=POLY_cond $X=0.505 $Y=1.63
+ $X2=0.505 $Y2=1.465
r632 19 21 299.306 $w=1.8e-07 $l=7.7e-07 $layer=POLY_cond $X=0.505 $Y=1.63
+ $X2=0.505 $Y2=2.4
r633 6 192 400 $w=1.7e-07 $l=3.35783e-07 $layer=licon1_PDIFF $count=1 $X=9.695
+ $Y=1.84 $X2=9.83 $Y2=2.115
r634 6 177 400 $w=1.7e-07 $l=1.04031e-06 $layer=licon1_PDIFF $count=1 $X=9.695
+ $Y=1.84 $X2=9.83 $Y2=2.815
r635 5 189 400 $w=1.7e-07 $l=3.35783e-07 $layer=licon1_PDIFF $count=1 $X=8.795
+ $Y=1.84 $X2=8.93 $Y2=2.115
r636 5 165 400 $w=1.7e-07 $l=1.04031e-06 $layer=licon1_PDIFF $count=1 $X=8.795
+ $Y=1.84 $X2=8.93 $Y2=2.815
r637 4 186 400 $w=1.7e-07 $l=3.35783e-07 $layer=licon1_PDIFF $count=1 $X=7.895
+ $Y=1.84 $X2=8.03 $Y2=2.115
r638 4 153 400 $w=1.7e-07 $l=1.04031e-06 $layer=licon1_PDIFF $count=1 $X=7.895
+ $Y=1.84 $X2=8.03 $Y2=2.815
r639 3 181 91 $w=1.7e-07 $l=2.03286e-07 $layer=licon1_NDIFF $count=2 $X=9.64
+ $Y=0.37 $X2=9.78 $Y2=0.515
r640 2 169 91 $w=1.7e-07 $l=2.03286e-07 $layer=licon1_NDIFF $count=2 $X=8.745
+ $Y=0.37 $X2=8.885 $Y2=0.515
r641 1 157 91 $w=1.7e-07 $l=2.03286e-07 $layer=licon1_NDIFF $count=2 $X=7.885
+ $Y=0.37 $X2=8.025 $Y2=0.515
.ends

.subckt PM_SKY130_FD_SC_MS__BUF_16%A 3 7 11 15 19 23 27 31 35 39 43 47 49 50 51
+ 52 53 77
c123 77 0 1.32147e-19 $X=10.065 $Y=1.515
c124 3 0 1.44668e-19 $X=7.805 $Y=2.4
r125 76 77 1.74861 $w=3.3e-07 $l=1e-08 $layer=POLY_cond $X=10.055 $Y=1.515
+ $X2=10.065 $Y2=1.515
r126 74 76 13.1146 $w=3.3e-07 $l=7.5e-08 $layer=POLY_cond $X=9.98 $Y=1.515
+ $X2=10.055 $Y2=1.515
r127 74 75 41.5086 $w=1.7e-07 $l=5.95e-07 $layer=licon1_POLY $count=3 $X=9.98
+ $Y=1.515 $X2=9.98 $Y2=1.515
r128 72 74 65.573 $w=3.3e-07 $l=3.75e-07 $layer=POLY_cond $X=9.605 $Y=1.515
+ $X2=9.98 $Y2=1.515
r129 71 72 6.99445 $w=3.3e-07 $l=4e-08 $layer=POLY_cond $X=9.565 $Y=1.515
+ $X2=9.605 $Y2=1.515
r130 70 71 71.6931 $w=3.3e-07 $l=4.1e-07 $layer=POLY_cond $X=9.155 $Y=1.515
+ $X2=9.565 $Y2=1.515
r131 69 70 9.61737 $w=3.3e-07 $l=5.5e-08 $layer=POLY_cond $X=9.1 $Y=1.515
+ $X2=9.155 $Y2=1.515
r132 68 69 69.0702 $w=3.3e-07 $l=3.95e-07 $layer=POLY_cond $X=8.705 $Y=1.515
+ $X2=9.1 $Y2=1.515
r133 67 68 6.12014 $w=3.3e-07 $l=3.5e-08 $layer=POLY_cond $X=8.67 $Y=1.515
+ $X2=8.705 $Y2=1.515
r134 66 67 72.5674 $w=3.3e-07 $l=4.15e-07 $layer=POLY_cond $X=8.255 $Y=1.515
+ $X2=8.67 $Y2=1.515
r135 65 66 2.62292 $w=3.3e-07 $l=1.5e-08 $layer=POLY_cond $X=8.24 $Y=1.515
+ $X2=8.255 $Y2=1.515
r136 63 65 52.4584 $w=3.3e-07 $l=3e-07 $layer=POLY_cond $X=7.94 $Y=1.515
+ $X2=8.24 $Y2=1.515
r137 63 64 41.5086 $w=1.7e-07 $l=5.95e-07 $layer=licon1_POLY $count=3 $X=7.94
+ $Y=1.515 $X2=7.94 $Y2=1.515
r138 61 63 22.732 $w=3.3e-07 $l=1.3e-07 $layer=POLY_cond $X=7.81 $Y=1.515
+ $X2=7.94 $Y2=1.515
r139 59 61 0.874306 $w=3.3e-07 $l=5e-09 $layer=POLY_cond $X=7.805 $Y=1.515
+ $X2=7.81 $Y2=1.515
r140 53 75 9.11234 $w=4.28e-07 $l=3.4e-07 $layer=LI1_cond $X=10.32 $Y=1.565
+ $X2=9.98 $Y2=1.565
r141 52 75 3.75214 $w=4.28e-07 $l=1.4e-07 $layer=LI1_cond $X=9.84 $Y=1.565
+ $X2=9.98 $Y2=1.565
r142 51 52 12.8645 $w=4.28e-07 $l=4.8e-07 $layer=LI1_cond $X=9.36 $Y=1.565
+ $X2=9.84 $Y2=1.565
r143 50 51 12.8645 $w=4.28e-07 $l=4.8e-07 $layer=LI1_cond $X=8.88 $Y=1.565
+ $X2=9.36 $Y2=1.565
r144 49 50 12.8645 $w=4.28e-07 $l=4.8e-07 $layer=LI1_cond $X=8.4 $Y=1.565
+ $X2=8.88 $Y2=1.565
r145 49 64 12.3285 $w=4.28e-07 $l=4.6e-07 $layer=LI1_cond $X=8.4 $Y=1.565
+ $X2=7.94 $Y2=1.565
r146 45 77 21.2229 $w=1.5e-07 $l=1.65e-07 $layer=POLY_cond $X=10.065 $Y=1.35
+ $X2=10.065 $Y2=1.515
r147 45 47 312.787 $w=1.5e-07 $l=6.1e-07 $layer=POLY_cond $X=10.065 $Y=1.35
+ $X2=10.065 $Y2=0.74
r148 41 76 16.9318 $w=1.8e-07 $l=1.65e-07 $layer=POLY_cond $X=10.055 $Y=1.68
+ $X2=10.055 $Y2=1.515
r149 41 43 279.871 $w=1.8e-07 $l=7.2e-07 $layer=POLY_cond $X=10.055 $Y=1.68
+ $X2=10.055 $Y2=2.4
r150 37 72 16.9318 $w=1.8e-07 $l=1.65e-07 $layer=POLY_cond $X=9.605 $Y=1.68
+ $X2=9.605 $Y2=1.515
r151 37 39 279.871 $w=1.8e-07 $l=7.2e-07 $layer=POLY_cond $X=9.605 $Y=1.68
+ $X2=9.605 $Y2=2.4
r152 33 71 21.2229 $w=1.5e-07 $l=1.65e-07 $layer=POLY_cond $X=9.565 $Y=1.35
+ $X2=9.565 $Y2=1.515
r153 33 35 312.787 $w=1.5e-07 $l=6.1e-07 $layer=POLY_cond $X=9.565 $Y=1.35
+ $X2=9.565 $Y2=0.74
r154 29 70 16.9318 $w=1.8e-07 $l=1.65e-07 $layer=POLY_cond $X=9.155 $Y=1.68
+ $X2=9.155 $Y2=1.515
r155 29 31 279.871 $w=1.8e-07 $l=7.2e-07 $layer=POLY_cond $X=9.155 $Y=1.68
+ $X2=9.155 $Y2=2.4
r156 25 69 21.2229 $w=1.5e-07 $l=1.65e-07 $layer=POLY_cond $X=9.1 $Y=1.35
+ $X2=9.1 $Y2=1.515
r157 25 27 312.787 $w=1.5e-07 $l=6.1e-07 $layer=POLY_cond $X=9.1 $Y=1.35 $X2=9.1
+ $Y2=0.74
r158 21 68 16.9318 $w=1.8e-07 $l=1.65e-07 $layer=POLY_cond $X=8.705 $Y=1.68
+ $X2=8.705 $Y2=1.515
r159 21 23 279.871 $w=1.8e-07 $l=7.2e-07 $layer=POLY_cond $X=8.705 $Y=1.68
+ $X2=8.705 $Y2=2.4
r160 17 67 21.2229 $w=1.5e-07 $l=1.65e-07 $layer=POLY_cond $X=8.67 $Y=1.35
+ $X2=8.67 $Y2=1.515
r161 17 19 312.787 $w=1.5e-07 $l=6.1e-07 $layer=POLY_cond $X=8.67 $Y=1.35
+ $X2=8.67 $Y2=0.74
r162 13 66 16.9318 $w=1.8e-07 $l=1.65e-07 $layer=POLY_cond $X=8.255 $Y=1.68
+ $X2=8.255 $Y2=1.515
r163 13 15 279.871 $w=1.8e-07 $l=7.2e-07 $layer=POLY_cond $X=8.255 $Y=1.68
+ $X2=8.255 $Y2=2.4
r164 9 65 21.2229 $w=1.5e-07 $l=1.65e-07 $layer=POLY_cond $X=8.24 $Y=1.35
+ $X2=8.24 $Y2=1.515
r165 9 11 312.787 $w=1.5e-07 $l=6.1e-07 $layer=POLY_cond $X=8.24 $Y=1.35
+ $X2=8.24 $Y2=0.74
r166 5 61 21.2229 $w=1.5e-07 $l=1.65e-07 $layer=POLY_cond $X=7.81 $Y=1.35
+ $X2=7.81 $Y2=1.515
r167 5 7 312.787 $w=1.5e-07 $l=6.1e-07 $layer=POLY_cond $X=7.81 $Y=1.35 $X2=7.81
+ $Y2=0.74
r168 1 59 16.9318 $w=1.8e-07 $l=1.65e-07 $layer=POLY_cond $X=7.805 $Y=1.68
+ $X2=7.805 $Y2=1.515
r169 1 3 279.871 $w=1.8e-07 $l=7.2e-07 $layer=POLY_cond $X=7.805 $Y=1.68
+ $X2=7.805 $Y2=2.4
.ends

.subckt PM_SKY130_FD_SC_MS__BUF_16%VPWR 1 2 3 4 5 6 7 8 9 10 11 12 37 39 45 51
+ 57 63 69 75 81 87 89 93 95 99 101 103 108 109 111 112 114 115 117 118 120 121
+ 123 124 126 127 128 129 130 157 166 169 173
c189 87 0 1.92956e-20 $X=7.53 $Y=2.455
c190 81 0 1.71822e-19 $X=6.63 $Y=2.13
c191 75 0 1.71822e-19 $X=5.73 $Y=2.13
c192 63 0 1.71822e-19 $X=3.93 $Y=2.13
c193 57 0 1.71822e-19 $X=3.03 $Y=2.13
c194 45 0 1.71822e-19 $X=1.18 $Y=2.13
r195 172 173 9.3 $w=1.7e-07 $l=1.7e-07 $layer=mcon $count=1 $X=10.32 $Y=3.33
+ $X2=10.32 $Y2=3.33
r196 169 170 4.65 $w=1.7e-07 $l=3.4e-07 $layer=mcon $count=2 $X=9.36 $Y=3.33
+ $X2=9.36 $Y2=3.33
r197 167 170 0.267585 $w=4.9e-07 $l=9.6e-07 $layer=MET1_cond $X=8.4 $Y=3.33
+ $X2=9.36 $Y2=3.33
r198 166 167 4.65 $w=1.7e-07 $l=3.4e-07 $layer=mcon $count=2 $X=8.4 $Y=3.33
+ $X2=8.4 $Y2=3.33
r199 163 164 9.3 $w=1.7e-07 $l=1.7e-07 $layer=mcon $count=1 $X=0.24 $Y=3.33
+ $X2=0.24 $Y2=3.33
r200 161 173 0.133793 $w=4.9e-07 $l=4.8e-07 $layer=MET1_cond $X=9.84 $Y=3.33
+ $X2=10.32 $Y2=3.33
r201 161 170 0.133793 $w=4.9e-07 $l=4.8e-07 $layer=MET1_cond $X=9.84 $Y=3.33
+ $X2=9.36 $Y2=3.33
r202 160 161 9.3 $w=1.7e-07 $l=1.7e-07 $layer=mcon $count=1 $X=9.84 $Y=3.33
+ $X2=9.84 $Y2=3.33
r203 158 169 5.16603 $w=1.7e-07 $l=8.5e-08 $layer=LI1_cond $X=9.465 $Y=3.33
+ $X2=9.38 $Y2=3.33
r204 158 160 24.4652 $w=1.68e-07 $l=3.75e-07 $layer=LI1_cond $X=9.465 $Y=3.33
+ $X2=9.84 $Y2=3.33
r205 157 172 4.01252 $w=1.7e-07 $l=1.82e-07 $layer=LI1_cond $X=10.195 $Y=3.33
+ $X2=10.377 $Y2=3.33
r206 157 160 23.1604 $w=1.68e-07 $l=3.55e-07 $layer=LI1_cond $X=10.195 $Y=3.33
+ $X2=9.84 $Y2=3.33
r207 156 167 0.267585 $w=4.9e-07 $l=9.6e-07 $layer=MET1_cond $X=7.44 $Y=3.33
+ $X2=8.4 $Y2=3.33
r208 155 156 4.65 $w=1.7e-07 $l=3.4e-07 $layer=mcon $count=2 $X=7.44 $Y=3.33
+ $X2=7.44 $Y2=3.33
r209 153 156 0.267585 $w=4.9e-07 $l=9.6e-07 $layer=MET1_cond $X=6.48 $Y=3.33
+ $X2=7.44 $Y2=3.33
r210 152 153 4.65 $w=1.7e-07 $l=3.4e-07 $layer=mcon $count=2 $X=6.48 $Y=3.33
+ $X2=6.48 $Y2=3.33
r211 150 153 0.267585 $w=4.9e-07 $l=9.6e-07 $layer=MET1_cond $X=5.52 $Y=3.33
+ $X2=6.48 $Y2=3.33
r212 149 150 4.65 $w=1.7e-07 $l=3.4e-07 $layer=mcon $count=2 $X=5.52 $Y=3.33
+ $X2=5.52 $Y2=3.33
r213 146 147 4.65 $w=1.7e-07 $l=3.4e-07 $layer=mcon $count=2 $X=4.56 $Y=3.33
+ $X2=4.56 $Y2=3.33
r214 144 147 0.267585 $w=4.9e-07 $l=9.6e-07 $layer=MET1_cond $X=3.6 $Y=3.33
+ $X2=4.56 $Y2=3.33
r215 143 144 4.65 $w=1.7e-07 $l=3.4e-07 $layer=mcon $count=2 $X=3.6 $Y=3.33
+ $X2=3.6 $Y2=3.33
r216 141 144 0.267585 $w=4.9e-07 $l=9.6e-07 $layer=MET1_cond $X=2.64 $Y=3.33
+ $X2=3.6 $Y2=3.33
r217 140 141 4.65 $w=1.7e-07 $l=3.4e-07 $layer=mcon $count=2 $X=2.64 $Y=3.33
+ $X2=2.64 $Y2=3.33
r218 138 141 0.267585 $w=4.9e-07 $l=9.6e-07 $layer=MET1_cond $X=1.68 $Y=3.33
+ $X2=2.64 $Y2=3.33
r219 137 138 4.65 $w=1.7e-07 $l=3.4e-07 $layer=mcon $count=2 $X=1.68 $Y=3.33
+ $X2=1.68 $Y2=3.33
r220 135 138 0.267585 $w=4.9e-07 $l=9.6e-07 $layer=MET1_cond $X=0.72 $Y=3.33
+ $X2=1.68 $Y2=3.33
r221 135 164 0.133793 $w=4.9e-07 $l=4.8e-07 $layer=MET1_cond $X=0.72 $Y=3.33
+ $X2=0.24 $Y2=3.33
r222 134 135 9.3 $w=1.7e-07 $l=1.7e-07 $layer=mcon $count=1 $X=0.72 $Y=3.33
+ $X2=0.72 $Y2=3.33
r223 132 163 4.00981 $w=1.7e-07 $l=1.83e-07 $layer=LI1_cond $X=0.365 $Y=3.33
+ $X2=0.182 $Y2=3.33
r224 132 134 23.1604 $w=1.68e-07 $l=3.55e-07 $layer=LI1_cond $X=0.365 $Y=3.33
+ $X2=0.72 $Y2=3.33
r225 130 150 0.0668963 $w=4.9e-07 $l=2.4e-07 $layer=MET1_cond $X=5.28 $Y=3.33
+ $X2=5.52 $Y2=3.33
r226 130 147 0.200689 $w=4.9e-07 $l=7.2e-07 $layer=MET1_cond $X=5.28 $Y=3.33
+ $X2=4.56 $Y2=3.33
r227 128 155 0.326203 $w=1.68e-07 $l=5e-09 $layer=LI1_cond $X=7.445 $Y=3.33
+ $X2=7.44 $Y2=3.33
r228 128 129 7.02821 $w=1.7e-07 $l=1.25e-07 $layer=LI1_cond $X=7.445 $Y=3.33
+ $X2=7.57 $Y2=3.33
r229 126 152 4.24064 $w=1.68e-07 $l=6.5e-08 $layer=LI1_cond $X=6.545 $Y=3.33
+ $X2=6.48 $Y2=3.33
r230 126 127 5.16603 $w=1.7e-07 $l=8.5e-08 $layer=LI1_cond $X=6.545 $Y=3.33
+ $X2=6.63 $Y2=3.33
r231 125 155 47.2995 $w=1.68e-07 $l=7.25e-07 $layer=LI1_cond $X=6.715 $Y=3.33
+ $X2=7.44 $Y2=3.33
r232 125 127 5.16603 $w=1.7e-07 $l=8.5e-08 $layer=LI1_cond $X=6.715 $Y=3.33
+ $X2=6.63 $Y2=3.33
r233 123 149 8.15508 $w=1.68e-07 $l=1.25e-07 $layer=LI1_cond $X=5.645 $Y=3.33
+ $X2=5.52 $Y2=3.33
r234 123 124 5.16603 $w=1.7e-07 $l=8.5e-08 $layer=LI1_cond $X=5.645 $Y=3.33
+ $X2=5.73 $Y2=3.33
r235 122 152 43.385 $w=1.68e-07 $l=6.65e-07 $layer=LI1_cond $X=5.815 $Y=3.33
+ $X2=6.48 $Y2=3.33
r236 122 124 5.16603 $w=1.7e-07 $l=8.5e-08 $layer=LI1_cond $X=5.815 $Y=3.33
+ $X2=5.73 $Y2=3.33
r237 120 146 12.0695 $w=1.68e-07 $l=1.85e-07 $layer=LI1_cond $X=4.745 $Y=3.33
+ $X2=4.56 $Y2=3.33
r238 120 121 5.16603 $w=1.7e-07 $l=8.5e-08 $layer=LI1_cond $X=4.745 $Y=3.33
+ $X2=4.83 $Y2=3.33
r239 119 149 39.4706 $w=1.68e-07 $l=6.05e-07 $layer=LI1_cond $X=4.915 $Y=3.33
+ $X2=5.52 $Y2=3.33
r240 119 121 5.16603 $w=1.7e-07 $l=8.5e-08 $layer=LI1_cond $X=4.915 $Y=3.33
+ $X2=4.83 $Y2=3.33
r241 117 143 15.984 $w=1.68e-07 $l=2.45e-07 $layer=LI1_cond $X=3.845 $Y=3.33
+ $X2=3.6 $Y2=3.33
r242 117 118 5.16603 $w=1.7e-07 $l=8.5e-08 $layer=LI1_cond $X=3.845 $Y=3.33
+ $X2=3.93 $Y2=3.33
r243 116 146 35.5561 $w=1.68e-07 $l=5.45e-07 $layer=LI1_cond $X=4.015 $Y=3.33
+ $X2=4.56 $Y2=3.33
r244 116 118 5.16603 $w=1.7e-07 $l=8.5e-08 $layer=LI1_cond $X=4.015 $Y=3.33
+ $X2=3.93 $Y2=3.33
r245 114 140 19.8984 $w=1.68e-07 $l=3.05e-07 $layer=LI1_cond $X=2.945 $Y=3.33
+ $X2=2.64 $Y2=3.33
r246 114 115 5.16603 $w=1.7e-07 $l=8.5e-08 $layer=LI1_cond $X=2.945 $Y=3.33
+ $X2=3.03 $Y2=3.33
r247 113 143 31.6417 $w=1.68e-07 $l=4.85e-07 $layer=LI1_cond $X=3.115 $Y=3.33
+ $X2=3.6 $Y2=3.33
r248 113 115 5.16603 $w=1.7e-07 $l=8.5e-08 $layer=LI1_cond $X=3.115 $Y=3.33
+ $X2=3.03 $Y2=3.33
r249 111 137 18.5936 $w=1.68e-07 $l=2.85e-07 $layer=LI1_cond $X=1.965 $Y=3.33
+ $X2=1.68 $Y2=3.33
r250 111 112 7.02821 $w=1.7e-07 $l=1.25e-07 $layer=LI1_cond $X=1.965 $Y=3.33
+ $X2=2.09 $Y2=3.33
r251 110 140 27.7273 $w=1.68e-07 $l=4.25e-07 $layer=LI1_cond $X=2.215 $Y=3.33
+ $X2=2.64 $Y2=3.33
r252 110 112 7.02821 $w=1.7e-07 $l=1.25e-07 $layer=LI1_cond $X=2.215 $Y=3.33
+ $X2=2.09 $Y2=3.33
r253 108 134 24.4652 $w=1.68e-07 $l=3.75e-07 $layer=LI1_cond $X=1.095 $Y=3.33
+ $X2=0.72 $Y2=3.33
r254 108 109 5.16603 $w=1.7e-07 $l=8.5e-08 $layer=LI1_cond $X=1.095 $Y=3.33
+ $X2=1.18 $Y2=3.33
r255 107 137 27.0749 $w=1.68e-07 $l=4.15e-07 $layer=LI1_cond $X=1.265 $Y=3.33
+ $X2=1.68 $Y2=3.33
r256 107 109 5.16603 $w=1.7e-07 $l=8.5e-08 $layer=LI1_cond $X=1.265 $Y=3.33
+ $X2=1.18 $Y2=3.33
r257 103 106 32.2684 $w=2.48e-07 $l=7e-07 $layer=LI1_cond $X=10.32 $Y=2.115
+ $X2=10.32 $Y2=2.815
r258 101 172 3.13065 $w=2.5e-07 $l=1.09864e-07 $layer=LI1_cond $X=10.32 $Y=3.245
+ $X2=10.377 $Y2=3.33
r259 101 106 19.822 $w=2.48e-07 $l=4.3e-07 $layer=LI1_cond $X=10.32 $Y=3.245
+ $X2=10.32 $Y2=2.815
r260 97 169 1.34256 $w=1.7e-07 $l=8.5e-08 $layer=LI1_cond $X=9.38 $Y=3.245
+ $X2=9.38 $Y2=3.33
r261 97 99 51.5401 $w=1.68e-07 $l=7.9e-07 $layer=LI1_cond $X=9.38 $Y=3.245
+ $X2=9.38 $Y2=2.455
r262 96 166 5.16603 $w=1.7e-07 $l=8.5e-08 $layer=LI1_cond $X=8.565 $Y=3.33
+ $X2=8.48 $Y2=3.33
r263 95 169 5.16603 $w=1.7e-07 $l=8.5e-08 $layer=LI1_cond $X=9.295 $Y=3.33
+ $X2=9.38 $Y2=3.33
r264 95 96 47.6257 $w=1.68e-07 $l=7.3e-07 $layer=LI1_cond $X=9.295 $Y=3.33
+ $X2=8.565 $Y2=3.33
r265 91 166 1.34256 $w=1.7e-07 $l=8.5e-08 $layer=LI1_cond $X=8.48 $Y=3.245
+ $X2=8.48 $Y2=3.33
r266 91 93 51.5401 $w=1.68e-07 $l=7.9e-07 $layer=LI1_cond $X=8.48 $Y=3.245
+ $X2=8.48 $Y2=2.455
r267 90 129 7.02821 $w=1.7e-07 $l=1.25e-07 $layer=LI1_cond $X=7.695 $Y=3.33
+ $X2=7.57 $Y2=3.33
r268 89 166 5.16603 $w=1.7e-07 $l=8.5e-08 $layer=LI1_cond $X=8.395 $Y=3.33
+ $X2=8.48 $Y2=3.33
r269 89 90 45.6684 $w=1.68e-07 $l=7e-07 $layer=LI1_cond $X=8.395 $Y=3.33
+ $X2=7.695 $Y2=3.33
r270 85 129 0.00168595 $w=2.5e-07 $l=8.5e-08 $layer=LI1_cond $X=7.57 $Y=3.245
+ $X2=7.57 $Y2=3.33
r271 85 87 36.4172 $w=2.48e-07 $l=7.9e-07 $layer=LI1_cond $X=7.57 $Y=3.245
+ $X2=7.57 $Y2=2.455
r272 81 84 44.6898 $w=1.68e-07 $l=6.85e-07 $layer=LI1_cond $X=6.63 $Y=2.13
+ $X2=6.63 $Y2=2.815