* File: sky130_fd_sc_ms__mux4_4.pex.spice
* Created: Fri Aug 28 17:41:08 2020
* Program "Calibre xRC"
* Version "v2018.4_34.26"
* Nominal Temperature: 27C
* Circuit Temperature: 27C
* 
.subckt PM_SKY130_FD_SC_MS__MUX4_4%A1 3 7 11 15 17 18 28
c43 18 0 8.41401e-20 $X=0.72 $Y=1.665
r44 27 28 5.24584 $w=3.3e-07 $l=3e-08 $layer=POLY_cond $X=0.925 $Y=1.615
+ $X2=0.955 $Y2=1.615
r45 25 27 34.9723 $w=3.3e-07 $l=2e-07 $layer=POLY_cond $X=0.725 $Y=1.615
+ $X2=0.925 $Y2=1.615
r46 23 25 38.4695 $w=3.3e-07 $l=2.2e-07 $layer=POLY_cond $X=0.505 $Y=1.615
+ $X2=0.725 $Y2=1.615
r47 21 23 1.74861 $w=3.3e-07 $l=1e-08 $layer=POLY_cond $X=0.495 $Y=1.615
+ $X2=0.505 $Y2=1.615
r48 18 25 72.64 $w=1.7e-07 $l=3.4e-07 $layer=licon1_POLY $count=2 $X=0.725
+ $Y=1.615 $X2=0.725 $Y2=1.615
r49 17 18 16.7628 $w=3.28e-07 $l=4.8e-07 $layer=LI1_cond $X=0.24 $Y=1.615
+ $X2=0.72 $Y2=1.615
r50 13 28 16.9318 $w=1.8e-07 $l=1.65e-07 $layer=POLY_cond $X=0.955 $Y=1.78
+ $X2=0.955 $Y2=1.615
r51 13 15 264.323 $w=1.8e-07 $l=6.8e-07 $layer=POLY_cond $X=0.955 $Y=1.78
+ $X2=0.955 $Y2=2.46
r52 9 27 21.2229 $w=1.5e-07 $l=1.65e-07 $layer=POLY_cond $X=0.925 $Y=1.45
+ $X2=0.925 $Y2=1.615
r53 9 11 256.383 $w=1.5e-07 $l=5e-07 $layer=POLY_cond $X=0.925 $Y=1.45 $X2=0.925
+ $Y2=0.95
r54 5 21 21.2229 $w=1.5e-07 $l=1.65e-07 $layer=POLY_cond $X=0.495 $Y=1.45
+ $X2=0.495 $Y2=1.615
r55 5 7 256.383 $w=1.5e-07 $l=5e-07 $layer=POLY_cond $X=0.495 $Y=1.45 $X2=0.495
+ $Y2=0.95
r56 1 23 16.9318 $w=1.8e-07 $l=1.65e-07 $layer=POLY_cond $X=0.505 $Y=1.78
+ $X2=0.505 $Y2=1.615
r57 1 3 264.323 $w=1.8e-07 $l=6.8e-07 $layer=POLY_cond $X=0.505 $Y=1.78
+ $X2=0.505 $Y2=2.46
.ends

.subckt PM_SKY130_FD_SC_MS__MUX4_4%A0 3 7 11 15 17 18 19 23 25
c60 25 0 1.04993e-19 $X=2.19 $Y=1.635
c61 11 0 7.75212e-20 $X=1.85 $Y=0.95
c62 7 0 8.41401e-20 $X=1.42 $Y=0.95
c63 3 0 2.67665e-19 $X=1.405 $Y=2.46
r64 34 35 9.61737 $w=3.3e-07 $l=5.5e-08 $layer=POLY_cond $X=1.85 $Y=1.635
+ $X2=1.905 $Y2=1.635
r65 32 34 59.4528 $w=3.3e-07 $l=3.4e-07 $layer=POLY_cond $X=1.51 $Y=1.635
+ $X2=1.85 $Y2=1.635
r66 32 33 96.8533 $w=1.7e-07 $l=2.55e-07 $layer=licon1_POLY $count=1 $X=1.51
+ $Y=1.635 $X2=1.51 $Y2=1.635
r67 30 32 15.7375 $w=3.3e-07 $l=9e-08 $layer=POLY_cond $X=1.42 $Y=1.635 $X2=1.51
+ $Y2=1.635
r68 28 30 2.62292 $w=3.3e-07 $l=1.5e-08 $layer=POLY_cond $X=1.405 $Y=1.635
+ $X2=1.42 $Y2=1.635
r69 23 35 15.7375 $w=3.3e-07 $l=9e-08 $layer=POLY_cond $X=1.995 $Y=1.635
+ $X2=1.905 $Y2=1.635
r70 23 25 34.0979 $w=3.3e-07 $l=1.95e-07 $layer=POLY_cond $X=1.995 $Y=1.635
+ $X2=2.19 $Y2=1.635
r71 19 25 96.8533 $w=1.7e-07 $l=2.55e-07 $layer=licon1_POLY $count=1 $X=2.19
+ $Y=1.635 $X2=2.19 $Y2=1.635
r72 18 19 16.7628 $w=3.28e-07 $l=4.8e-07 $layer=LI1_cond $X=1.68 $Y=1.635
+ $X2=2.16 $Y2=1.635
r73 18 33 5.93683 $w=3.28e-07 $l=1.7e-07 $layer=LI1_cond $X=1.68 $Y=1.635
+ $X2=1.51 $Y2=1.635
r74 17 33 10.826 $w=3.28e-07 $l=3.1e-07 $layer=LI1_cond $X=1.2 $Y=1.635 $X2=1.51
+ $Y2=1.635
r75 13 35 16.9318 $w=1.8e-07 $l=1.65e-07 $layer=POLY_cond $X=1.905 $Y=1.8
+ $X2=1.905 $Y2=1.635
r76 13 15 256.548 $w=1.8e-07 $l=6.6e-07 $layer=POLY_cond $X=1.905 $Y=1.8
+ $X2=1.905 $Y2=2.46
r77 9 34 21.2229 $w=1.5e-07 $l=1.65e-07 $layer=POLY_cond $X=1.85 $Y=1.47
+ $X2=1.85 $Y2=1.635
r78 9 11 266.638 $w=1.5e-07 $l=5.2e-07 $layer=POLY_cond $X=1.85 $Y=1.47 $X2=1.85
+ $Y2=0.95
r79 5 30 21.2229 $w=1.5e-07 $l=1.65e-07 $layer=POLY_cond $X=1.42 $Y=1.47
+ $X2=1.42 $Y2=1.635
r80 5 7 266.638 $w=1.5e-07 $l=5.2e-07 $layer=POLY_cond $X=1.42 $Y=1.47 $X2=1.42
+ $Y2=0.95
r81 1 28 16.9318 $w=1.8e-07 $l=1.65e-07 $layer=POLY_cond $X=1.405 $Y=1.8
+ $X2=1.405 $Y2=1.635
r82 1 3 256.548 $w=1.8e-07 $l=6.6e-07 $layer=POLY_cond $X=1.405 $Y=1.8 $X2=1.405
+ $Y2=2.46
.ends

.subckt PM_SKY130_FD_SC_MS__MUX4_4%A_758_306# 1 2 9 13 17 21 24 25 27 30 32 34
+ 37 45 49 55 57 62 66 67 69 76
c134 57 0 1.30567e-19 $X=6.54 $Y=1.53
c135 32 0 7.8786e-20 $X=6.745 $Y=1.365
c136 21 0 1.75061e-19 $X=4.335 $Y=0.915
r137 75 76 9.61737 $w=3.3e-07 $l=5.5e-08 $layer=POLY_cond $X=6.745 $Y=1.53
+ $X2=6.8 $Y2=1.53
r138 71 73 6.12014 $w=3.3e-07 $l=3.5e-08 $layer=POLY_cond $X=6.315 $Y=1.53
+ $X2=6.35 $Y2=1.53
r139 66 67 54.4759 $w=1.68e-07 $l=8.35e-07 $layer=LI1_cond $X=5.2 $Y=1.45
+ $X2=6.035 $Y2=1.45
r140 65 66 7.06528 $w=3.28e-07 $l=1.25e-07 $layer=LI1_cond $X=5.075 $Y=1.515
+ $X2=5.2 $Y2=1.515
r141 64 65 0.104768 $w=3.28e-07 $l=3e-09 $layer=LI1_cond $X=5.072 $Y=1.515
+ $X2=5.075 $Y2=1.515
r142 62 69 31.258 $w=3.3e-07 $l=1.65e-07 $layer=POLY_cond $X=4.875 $Y=1.515
+ $X2=4.71 $Y2=1.515
r143 61 64 6.87974 $w=3.28e-07 $l=1.97e-07 $layer=LI1_cond $X=4.875 $Y=1.515
+ $X2=5.072 $Y2=1.515
r144 61 62 145.28 $w=1.7e-07 $l=1.7e-07 $layer=licon1_POLY $count=1 $X=4.875
+ $Y=1.515 $X2=4.875 $Y2=1.515
r145 58 75 35.8466 $w=3.3e-07 $l=2.05e-07 $layer=POLY_cond $X=6.54 $Y=1.53
+ $X2=6.745 $Y2=1.53
r146 58 73 33.2236 $w=3.3e-07 $l=1.9e-07 $layer=POLY_cond $X=6.54 $Y=1.53
+ $X2=6.35 $Y2=1.53
r147 57 58 72.64 $w=1.7e-07 $l=3.4e-07 $layer=licon1_POLY $count=2 $X=6.54
+ $Y=1.53 $X2=6.54 $Y2=1.53
r148 55 67 14.2244 $w=3.28e-07 $l=3.3e-07 $layer=LI1_cond $X=6.365 $Y=1.53
+ $X2=6.035 $Y2=1.53
r149 55 57 6.11144 $w=3.28e-07 $l=1.75e-07 $layer=LI1_cond $X=6.365 $Y=1.53
+ $X2=6.54 $Y2=1.53
r150 49 51 38.2611 $w=2.48e-07 $l=8.3e-07 $layer=LI1_cond $X=5.075 $Y=1.985
+ $X2=5.075 $Y2=2.815
r151 47 65 2.36532 $w=2.5e-07 $l=1.65e-07 $layer=LI1_cond $X=5.075 $Y=1.68
+ $X2=5.075 $Y2=1.515
r152 47 49 14.0598 $w=2.48e-07 $l=3.05e-07 $layer=LI1_cond $X=5.075 $Y=1.68
+ $X2=5.075 $Y2=1.985
r153 43 64 2.26808 $w=2.55e-07 $l=1.65e-07 $layer=LI1_cond $X=5.072 $Y=1.35
+ $X2=5.072 $Y2=1.515
r154 43 45 37.7369 $w=2.53e-07 $l=8.35e-07 $layer=LI1_cond $X=5.072 $Y=1.35
+ $X2=5.072 $Y2=0.515
r155 41 42 0.937743 $w=2.57e-07 $l=5e-09 $layer=POLY_cond $X=4.33 $Y=1.547
+ $X2=4.335 $Y2=1.547
r156 40 41 79.7082 $w=2.57e-07 $l=4.25e-07 $layer=POLY_cond $X=3.905 $Y=1.547
+ $X2=4.33 $Y2=1.547
r157 39 40 4.68872 $w=2.57e-07 $l=2.5e-08 $layer=POLY_cond $X=3.88 $Y=1.547
+ $X2=3.905 $Y2=1.547
r158 35 76 16.9318 $w=1.8e-07 $l=1.65e-07 $layer=POLY_cond $X=6.8 $Y=1.695
+ $X2=6.8 $Y2=1.53
r159 35 37 268.21 $w=1.8e-07 $l=6.9e-07 $layer=POLY_cond $X=6.8 $Y=1.695 $X2=6.8
+ $Y2=2.385
r160 32 75 21.2229 $w=1.5e-07 $l=1.65e-07 $layer=POLY_cond $X=6.745 $Y=1.365
+ $X2=6.745 $Y2=1.53
r161 32 34 141.387 $w=1.5e-07 $l=4.4e-07 $layer=POLY_cond $X=6.745 $Y=1.365
+ $X2=6.745 $Y2=0.925
r162 28 73 16.9318 $w=1.8e-07 $l=1.65e-07 $layer=POLY_cond $X=6.35 $Y=1.695
+ $X2=6.35 $Y2=1.53
r163 28 30 268.21 $w=1.8e-07 $l=6.9e-07 $layer=POLY_cond $X=6.35 $Y=1.695
+ $X2=6.35 $Y2=2.385
r164 25 71 21.2229 $w=1.5e-07 $l=1.65e-07 $layer=POLY_cond $X=6.315 $Y=1.365
+ $X2=6.315 $Y2=1.53
r165 25 27 141.387 $w=1.5e-07 $l=4.4e-07 $layer=POLY_cond $X=6.315 $Y=1.365
+ $X2=6.315 $Y2=0.925
r166 24 42 15.4604 $w=2.65e-07 $l=8.5e-08 $layer=POLY_cond $X=4.42 $Y=1.547
+ $X2=4.335 $Y2=1.547
r167 24 69 65.646 $w=2.65e-07 $l=2.9e-07 $layer=POLY_cond $X=4.42 $Y=1.547
+ $X2=4.71 $Y2=1.547
r168 19 42 15.359 $w=1.5e-07 $l=1.32e-07 $layer=POLY_cond $X=4.335 $Y=1.415
+ $X2=4.335 $Y2=1.547
r169 19 21 256.383 $w=1.5e-07 $l=5e-07 $layer=POLY_cond $X=4.335 $Y=1.415
+ $X2=4.335 $Y2=0.915
r170 15 41 11.1533 $w=1.8e-07 $l=1.33e-07 $layer=POLY_cond $X=4.33 $Y=1.68
+ $X2=4.33 $Y2=1.547
r171 15 17 303.194 $w=1.8e-07 $l=7.8e-07 $layer=POLY_cond $X=4.33 $Y=1.68
+ $X2=4.33 $Y2=2.46
r172 11 40 15.359 $w=1.5e-07 $l=1.32e-07 $layer=POLY_cond $X=3.905 $Y=1.415
+ $X2=3.905 $Y2=1.547
r173 11 13 256.383 $w=1.5e-07 $l=5e-07 $layer=POLY_cond $X=3.905 $Y=1.415
+ $X2=3.905 $Y2=0.915
r174 7 39 11.1533 $w=1.8e-07 $l=1.33e-07 $layer=POLY_cond $X=3.88 $Y=1.68
+ $X2=3.88 $Y2=1.547
r175 7 9 303.194 $w=1.8e-07 $l=7.8e-07 $layer=POLY_cond $X=3.88 $Y=1.68 $X2=3.88
+ $Y2=2.46
r176 2 51 400 $w=1.7e-07 $l=1.04499e-06 $layer=licon1_PDIFF $count=1 $X=4.97
+ $Y=1.84 $X2=5.115 $Y2=2.815
r177 2 49 400 $w=1.7e-07 $l=2.05061e-07 $layer=licon1_PDIFF $count=1 $X=4.97
+ $Y=1.84 $X2=5.115 $Y2=1.985
r178 1 45 91 $w=1.7e-07 $l=2.05061e-07 $layer=licon1_NDIFF $count=2 $X=4.965
+ $Y=0.37 $X2=5.11 $Y2=0.515
.ends

.subckt PM_SKY130_FD_SC_MS__MUX4_4%S0 3 8 9 10 13 18 19 24 25 27 29 33 37 41 45
+ 48 50 52 53 54 56 57 58 59 63
c173 59 0 1.54503e-19 $X=8.4 $Y=1.665
c174 41 0 1.64187e-19 $X=7.605 $Y=0.925
c175 37 0 4.1337e-20 $X=7.25 $Y=2.385
c176 33 0 2.75222e-19 $X=7.175 $Y=0.925
r177 72 73 14.5828 $w=3.14e-07 $l=9.5e-08 $layer=POLY_cond $X=7.605 $Y=1.56
+ $X2=7.7 $Y2=1.56
r178 70 72 22.258 $w=3.14e-07 $l=1.45e-07 $layer=POLY_cond $X=7.46 $Y=1.56
+ $X2=7.605 $Y2=1.56
r179 70 71 145.28 $w=1.7e-07 $l=1.7e-07 $layer=licon1_POLY $count=1 $X=7.46
+ $Y=1.56 $X2=7.46 $Y2=1.56
r180 68 70 32.2357 $w=3.14e-07 $l=2.1e-07 $layer=POLY_cond $X=7.25 $Y=1.56
+ $X2=7.46 $Y2=1.56
r181 67 68 11.5127 $w=3.14e-07 $l=7.5e-08 $layer=POLY_cond $X=7.175 $Y=1.56
+ $X2=7.25 $Y2=1.56
r182 65 66 72.64 $w=1.7e-07 $l=3.4e-07 $layer=licon1_POLY $count=2 $X=8.14
+ $Y=1.56 $X2=8.14 $Y2=1.56
r183 63 73 13.3045 $w=3.3e-07 $l=9e-08 $layer=POLY_cond $X=7.79 $Y=1.56 $X2=7.7
+ $Y2=1.56
r184 63 65 61.2015 $w=3.3e-07 $l=3.5e-07 $layer=POLY_cond $X=7.79 $Y=1.56
+ $X2=8.14 $Y2=1.56
r185 59 66 8.8128 $w=3.38e-07 $l=2.6e-07 $layer=LI1_cond $X=8.4 $Y=1.605
+ $X2=8.14 $Y2=1.605
r186 58 66 7.45698 $w=3.38e-07 $l=2.2e-07 $layer=LI1_cond $X=7.92 $Y=1.605
+ $X2=8.14 $Y2=1.605
r187 58 71 15.5919 $w=3.38e-07 $l=4.6e-07 $layer=LI1_cond $X=7.92 $Y=1.605
+ $X2=7.46 $Y2=1.605
r188 57 71 0.677908 $w=3.38e-07 $l=2e-08 $layer=LI1_cond $X=7.44 $Y=1.605
+ $X2=7.46 $Y2=1.605
r189 56 65 2.62292 $w=3.3e-07 $l=1.5e-08 $layer=POLY_cond $X=8.155 $Y=1.56
+ $X2=8.14 $Y2=1.56
r190 51 52 60.4563 $w=1.8e-07 $l=1.5e-07 $layer=POLY_cond $X=3.432 $Y=1.31
+ $X2=3.432 $Y2=1.46
r191 49 50 60.4563 $w=1.8e-07 $l=1.5e-07 $layer=POLY_cond $X=2.957 $Y=1.31
+ $X2=2.957 $Y2=1.46
r192 48 56 32.1775 $w=3.3e-07 $l=1.98997e-07 $layer=POLY_cond $X=8.23 $Y=1.395
+ $X2=8.155 $Y2=1.56
r193 47 48 584.553 $w=1.5e-07 $l=1.14e-06 $layer=POLY_cond $X=8.23 $Y=0.255
+ $X2=8.23 $Y2=1.395
r194 43 73 15.7762 $w=1.8e-07 $l=1.65e-07 $layer=POLY_cond $X=7.7 $Y=1.725
+ $X2=7.7 $Y2=1.56
r195 43 45 256.548 $w=1.8e-07 $l=6.6e-07 $layer=POLY_cond $X=7.7 $Y=1.725
+ $X2=7.7 $Y2=2.385
r196 39 72 20.044 $w=1.5e-07 $l=1.65e-07 $layer=POLY_cond $X=7.605 $Y=1.395
+ $X2=7.605 $Y2=1.56
r197 39 41 241 $w=1.5e-07 $l=4.7e-07 $layer=POLY_cond $X=7.605 $Y=1.395
+ $X2=7.605 $Y2=0.925
r198 35 68 15.7762 $w=1.8e-07 $l=1.65e-07 $layer=POLY_cond $X=7.25 $Y=1.725
+ $X2=7.25 $Y2=1.56
r199 35 37 256.548 $w=1.8e-07 $l=6.6e-07 $layer=POLY_cond $X=7.25 $Y=1.725
+ $X2=7.25 $Y2=2.385
r200 31 67 20.044 $w=1.5e-07 $l=1.65e-07 $layer=POLY_cond $X=7.175 $Y=1.395
+ $X2=7.175 $Y2=1.56
r201 31 33 241 $w=1.5e-07 $l=4.7e-07 $layer=POLY_cond $X=7.175 $Y=1.395
+ $X2=7.175 $Y2=0.925
r202 30 54 20.4101 $w=1.5e-07 $l=7.5e-08 $layer=POLY_cond $X=5.4 $Y=0.18
+ $X2=5.325 $Y2=0.18
r203 29 47 26.9307 $w=1.5e-07 $l=1.06066e-07 $layer=POLY_cond $X=8.155 $Y=0.18
+ $X2=8.23 $Y2=0.255
r204 29 30 1412.67 $w=1.5e-07 $l=2.755e-06 $layer=POLY_cond $X=8.155 $Y=0.18
+ $X2=5.4 $Y2=0.18
r205 25 55 37.1337 $w=1.8e-07 $l=9e-08 $layer=POLY_cond $X=5.34 $Y=1.275
+ $X2=5.34 $Y2=1.185
r206 25 27 437.298 $w=1.8e-07 $l=1.125e-06 $layer=POLY_cond $X=5.34 $Y=1.275
+ $X2=5.34 $Y2=2.4
r207 24 55 228.181 $w=1.5e-07 $l=4.45e-07 $layer=POLY_cond $X=5.325 $Y=0.74
+ $X2=5.325 $Y2=1.185
r208 21 54 5.30422 $w=1.5e-07 $l=7.5e-08 $layer=POLY_cond $X=5.325 $Y=0.255
+ $X2=5.325 $Y2=0.18
r209 21 24 248.691 $w=1.5e-07 $l=4.85e-07 $layer=POLY_cond $X=5.325 $Y=0.255
+ $X2=5.325 $Y2=0.74
r210 20 53 20.4101 $w=1.5e-07 $l=7.5e-08 $layer=POLY_cond $X=3.55 $Y=0.18
+ $X2=3.475 $Y2=0.18
r211 19 54 20.4101 $w=1.5e-07 $l=7.5e-08 $layer=POLY_cond $X=5.25 $Y=0.18
+ $X2=5.325 $Y2=0.18
r212 19 20 871.702 $w=1.5e-07 $l=1.7e-06 $layer=POLY_cond $X=5.25 $Y=0.18
+ $X2=3.55 $Y2=0.18
r213 18 51 202.543 $w=1.5e-07 $l=3.95e-07 $layer=POLY_cond $X=3.475 $Y=0.915
+ $X2=3.475 $Y2=1.31
r214 15 53 5.30422 $w=1.5e-07 $l=7.5e-08 $layer=POLY_cond $X=3.475 $Y=0.255
+ $X2=3.475 $Y2=0.18
r215 15 18 338.426 $w=1.5e-07 $l=6.6e-07 $layer=POLY_cond $X=3.475 $Y=0.255
+ $X2=3.475 $Y2=0.915
r216 13 52 388.71 $w=1.8e-07 $l=1e-06 $layer=POLY_cond $X=3.405 $Y=2.46
+ $X2=3.405 $Y2=1.46
r217 9 53 20.4101 $w=1.5e-07 $l=7.5e-08 $layer=POLY_cond $X=3.4 $Y=0.18
+ $X2=3.475 $Y2=0.18
r218 9 10 166.649 $w=1.5e-07 $l=3.25e-07 $layer=POLY_cond $X=3.4 $Y=0.18
+ $X2=3.075 $Y2=0.18
r219 8 49 202.543 $w=1.5e-07 $l=3.95e-07 $layer=POLY_cond $X=3 $Y=0.915 $X2=3
+ $Y2=1.31
r220 5 10 26.9307 $w=1.5e-07 $l=1.06066e-07 $layer=POLY_cond $X=3 $Y=0.255
+ $X2=3.075 $Y2=0.18
r221 5 8 338.426 $w=1.5e-07 $l=6.6e-07 $layer=POLY_cond $X=3 $Y=0.255 $X2=3
+ $Y2=0.915
r222 3 50 388.71 $w=1.8e-07 $l=1e-06 $layer=POLY_cond $X=2.93 $Y=2.46 $X2=2.93
+ $Y2=1.46
.ends

.subckt PM_SKY130_FD_SC_MS__MUX4_4%A2 3 7 11 15 17 18 28
c59 28 0 9.16034e-20 $X=9.385 $Y=1.425
c60 15 0 1.66006e-19 $X=9.385 $Y=0.69
r61 26 28 20.109 $w=3.3e-07 $l=1.15e-07 $layer=POLY_cond $X=9.27 $Y=1.425
+ $X2=9.385 $Y2=1.425
r62 26 27 72.64 $w=1.7e-07 $l=3.4e-07 $layer=licon1_POLY $count=2 $X=9.27
+ $Y=1.425 $X2=9.27 $Y2=1.425
r63 24 26 4.37153 $w=3.3e-07 $l=2.5e-08 $layer=POLY_cond $X=9.245 $Y=1.425
+ $X2=9.27 $Y2=1.425
r64 23 24 50.7098 $w=3.3e-07 $l=2.9e-07 $layer=POLY_cond $X=8.955 $Y=1.425
+ $X2=9.245 $Y2=1.425
r65 21 23 27.9778 $w=3.3e-07 $l=1.6e-07 $layer=POLY_cond $X=8.795 $Y=1.425
+ $X2=8.955 $Y2=1.425
r66 18 27 2.09023 $w=5.13e-07 $l=9e-08 $layer=LI1_cond $X=9.36 $Y=1.517 $X2=9.27
+ $Y2=1.517
r67 17 27 9.05768 $w=5.13e-07 $l=3.9e-07 $layer=LI1_cond $X=8.88 $Y=1.517
+ $X2=9.27 $Y2=1.517
r68 13 28 21.2229 $w=1.5e-07 $l=1.65e-07 $layer=POLY_cond $X=9.385 $Y=1.26
+ $X2=9.385 $Y2=1.425
r69 13 15 292.277 $w=1.5e-07 $l=5.7e-07 $layer=POLY_cond $X=9.385 $Y=1.26
+ $X2=9.385 $Y2=0.69
r70 9 24 16.9318 $w=1.8e-07 $l=1.65e-07 $layer=POLY_cond $X=9.245 $Y=1.59
+ $X2=9.245 $Y2=1.425
r71 9 11 338.177 $w=1.8e-07 $l=8.7e-07 $layer=POLY_cond $X=9.245 $Y=1.59
+ $X2=9.245 $Y2=2.46
r72 5 23 21.2229 $w=1.5e-07 $l=1.65e-07 $layer=POLY_cond $X=8.955 $Y=1.26
+ $X2=8.955 $Y2=1.425
r73 5 7 292.277 $w=1.5e-07 $l=5.7e-07 $layer=POLY_cond $X=8.955 $Y=1.26
+ $X2=8.955 $Y2=0.69
r74 1 21 16.9318 $w=1.8e-07 $l=1.65e-07 $layer=POLY_cond $X=8.795 $Y=1.59
+ $X2=8.795 $Y2=1.425
r75 1 3 338.177 $w=1.8e-07 $l=8.7e-07 $layer=POLY_cond $X=8.795 $Y=1.59
+ $X2=8.795 $Y2=2.46
.ends

.subckt PM_SKY130_FD_SC_MS__MUX4_4%A3 3 7 9 11 14 17 20 22 23 31
c55 31 0 2.68867e-20 $X=10.325 $Y=1.61
c56 9 0 1.44963e-19 $X=10.245 $Y=1.085
r57 31 32 1.46951 $w=3.28e-07 $l=1e-08 $layer=POLY_cond $X=10.325 $Y=1.61
+ $X2=10.335 $Y2=1.61
r58 29 31 11.7561 $w=3.28e-07 $l=8e-08 $layer=POLY_cond $X=10.245 $Y=1.61
+ $X2=10.325 $Y2=1.61
r59 27 29 54.372 $w=3.28e-07 $l=3.7e-07 $layer=POLY_cond $X=9.875 $Y=1.61
+ $X2=10.245 $Y2=1.61
r60 26 27 8.81707 $w=3.28e-07 $l=6e-08 $layer=POLY_cond $X=9.815 $Y=1.61
+ $X2=9.875 $Y2=1.61
r61 23 29 72.64 $w=1.7e-07 $l=3.4e-07 $layer=licon1_POLY $count=2 $X=10.245
+ $Y=1.61 $X2=10.245 $Y2=1.61
r62 22 23 14.1436 $w=3.28e-07 $l=4.05e-07 $layer=LI1_cond $X=9.84 $Y=1.61
+ $X2=10.245 $Y2=1.61
r63 18 20 46.1489 $w=1.5e-07 $l=9e-08 $layer=POLY_cond $X=10.245 $Y=1.16
+ $X2=10.335 $Y2=1.16
r64 17 32 21.0783 $w=1.5e-07 $l=1.65e-07 $layer=POLY_cond $X=10.335 $Y=1.445
+ $X2=10.335 $Y2=1.61
r65 16 20 2.83073 $w=1.5e-07 $l=7.5e-08 $layer=POLY_cond $X=10.335 $Y=1.235
+ $X2=10.335 $Y2=1.16
r66 16 17 107.681 $w=1.5e-07 $l=2.1e-07 $layer=POLY_cond $X=10.335 $Y=1.235
+ $X2=10.335 $Y2=1.445
r67 12 31 16.7902 $w=1.8e-07 $l=1.65e-07 $layer=POLY_cond $X=10.325 $Y=1.775
+ $X2=10.325 $Y2=1.61
r68 12 14 266.266 $w=1.8e-07 $l=6.85e-07 $layer=POLY_cond $X=10.325 $Y=1.775
+ $X2=10.325 $Y2=2.46
r69 9 18 2.83073 $w=1.5e-07 $l=7.5e-08 $layer=POLY_cond $X=10.245 $Y=1.085
+ $X2=10.245 $Y2=1.16
r70 9 11 126.927 $w=1.5e-07 $l=3.95e-07 $layer=POLY_cond $X=10.245 $Y=1.085
+ $X2=10.245 $Y2=0.69
r71 5 27 16.7902 $w=1.8e-07 $l=1.65e-07 $layer=POLY_cond $X=9.875 $Y=1.775
+ $X2=9.875 $Y2=1.61
r72 5 7 266.266 $w=1.8e-07 $l=6.85e-07 $layer=POLY_cond $X=9.875 $Y=1.775
+ $X2=9.875 $Y2=2.46
r73 1 26 21.0783 $w=1.5e-07 $l=1.65e-07 $layer=POLY_cond $X=9.815 $Y=1.445
+ $X2=9.815 $Y2=1.61
r74 1 3 387.138 $w=1.5e-07 $l=7.55e-07 $layer=POLY_cond $X=9.815 $Y=1.445
+ $X2=9.815 $Y2=0.69
.ends

.subckt PM_SKY130_FD_SC_MS__MUX4_4%S1 3 7 11 15 17 19 21 24 26 31 32 40 44 49 55
+ 56 58
c116 56 0 5.98463e-20 $X=12.665 $Y=1.455
c117 44 0 2.9352e-20 $X=12.315 $Y=1.36
c118 24 0 1.03922e-19 $X=14.3 $Y=2.4
c119 17 0 1.438e-19 $X=14.21 $Y=1.37
c120 15 0 8.44579e-20 $X=12.035 $Y=2.46
r121 55 56 1.63907 $w=6.48e-07 $l=5.5e-08 $layer=LI1_cond $X=12.72 $Y=1.455
+ $X2=12.665 $Y2=1.455
r122 44 45 145.28 $w=1.7e-07 $l=1.7e-07 $layer=licon1_POLY $count=1 $X=12.315
+ $Y=1.36 $X2=12.315 $Y2=1.36
r123 40 58 9.28585 $w=6.48e-07 $l=1e-07 $layer=LI1_cond $X=12.735 $Y=1.455
+ $X2=12.835 $Y2=1.455
r124 40 55 0.276018 $w=6.48e-07 $l=1.5e-08 $layer=LI1_cond $X=12.735 $Y=1.455
+ $X2=12.72 $Y2=1.455
r125 40 56 0.355271 $w=5.03e-07 $l=1.5e-08 $layer=LI1_cond $X=12.65 $Y=1.527
+ $X2=12.665 $Y2=1.527
r126 40 45 7.93438 $w=5.03e-07 $l=3.35e-07 $layer=LI1_cond $X=12.65 $Y=1.527
+ $X2=12.315 $Y2=1.527
r127 38 49 29.4439 $w=3.3e-07 $l=1.65e-07 $layer=POLY_cond $X=13.705 $Y=1.385
+ $X2=13.87 $Y2=1.385
r128 37 38 145.28 $w=1.7e-07 $l=1.7e-07 $layer=licon1_POLY $count=1 $X=13.705
+ $Y=1.385 $X2=13.705 $Y2=1.385
r129 32 37 6.02816 $w=3.23e-07 $l=1.7e-07 $layer=LI1_cond $X=13.702 $Y=1.215
+ $X2=13.702 $Y2=1.385
r130 32 58 45.9947 $w=1.68e-07 $l=7.05e-07 $layer=LI1_cond $X=13.54 $Y=1.215
+ $X2=12.835 $Y2=1.215
r131 29 30 14.7551 $w=2.94e-07 $l=9e-08 $layer=POLY_cond $X=11.945 $Y=1.36
+ $X2=12.035 $Y2=1.36
r132 28 29 67.2177 $w=2.94e-07 $l=4.1e-07 $layer=POLY_cond $X=11.535 $Y=1.36
+ $X2=11.945 $Y2=1.36
r133 26 44 33.2236 $w=3.3e-07 $l=1.9e-07 $layer=POLY_cond $X=12.125 $Y=1.36
+ $X2=12.315 $Y2=1.36
r134 26 30 13.8324 $w=3.3e-07 $l=9e-08 $layer=POLY_cond $X=12.125 $Y=1.36
+ $X2=12.035 $Y2=1.36
r135 22 31 32.4784 $w=1.65e-07 $l=1.5e-07 $layer=POLY_cond $X=14.3 $Y=1.52
+ $X2=14.3 $Y2=1.37
r136 22 24 342.065 $w=1.8e-07 $l=8.8e-07 $layer=POLY_cond $X=14.3 $Y=1.52
+ $X2=14.3 $Y2=2.4
r137 19 31 32.4784 $w=1.65e-07 $l=1.57321e-07 $layer=POLY_cond $X=14.285 $Y=1.22
+ $X2=14.3 $Y2=1.37
r138 19 21 154.24 $w=1.5e-07 $l=4.8e-07 $layer=POLY_cond $X=14.285 $Y=1.22
+ $X2=14.285 $Y2=0.74
r139 17 31 2.73406 $w=3e-07 $l=9e-08 $layer=POLY_cond $X=14.21 $Y=1.37 $X2=14.3
+ $Y2=1.37
r140 17 49 67.9852 $w=3e-07 $l=3.4e-07 $layer=POLY_cond $X=14.21 $Y=1.37
+ $X2=13.87 $Y2=1.37
r141 13 30 14.2527 $w=1.8e-07 $l=1.65e-07 $layer=POLY_cond $X=12.035 $Y=1.525
+ $X2=12.035 $Y2=1.36
r142 13 15 363.444 $w=1.8e-07 $l=9.35e-07 $layer=POLY_cond $X=12.035 $Y=1.525
+ $X2=12.035 $Y2=2.46
r143 9 29 18.4939 $w=1.5e-07 $l=1.65e-07 $layer=POLY_cond $X=11.945 $Y=1.195
+ $X2=11.945 $Y2=1.36
r144 9 11 258.947 $w=1.5e-07 $l=5.05e-07 $layer=POLY_cond $X=11.945 $Y=1.195
+ $X2=11.945 $Y2=0.69
r145 5 28 14.2527 $w=1.8e-07 $l=1.65e-07 $layer=POLY_cond $X=11.535 $Y=1.525
+ $X2=11.535 $Y2=1.36
r146 5 7 363.444 $w=1.8e-07 $l=9.35e-07 $layer=POLY_cond $X=11.535 $Y=1.525
+ $X2=11.535 $Y2=2.46
r147 1 28 29.5102 $w=2.94e-07 $l=2.49199e-07 $layer=POLY_cond $X=11.355 $Y=1.195
+ $X2=11.535 $Y2=1.36
r148 1 3 258.947 $w=1.5e-07 $l=5.05e-07 $layer=POLY_cond $X=11.355 $Y=1.195
+ $X2=11.355 $Y2=0.69
.ends

.subckt PM_SKY130_FD_SC_MS__MUX4_4%A_2489_347# 1 2 7 9 12 14 16 19 21 25 30 32
+ 33 37 39
c85 33 0 4.75356e-20 $X=13.165 $Y=1.635
c86 32 0 2.68058e-20 $X=13.165 $Y=1.635
c87 30 0 2.3931e-20 $X=14.12 $Y=1.72
c88 21 0 1.438e-19 $X=13.875 $Y=1.805
c89 7 0 1.46885e-19 $X=12.535 $Y=1.885
r90 43 44 34.8434 $w=3.32e-07 $l=2.4e-07 $layer=POLY_cond $X=12.795 $Y=1.677
+ $X2=13.035 $Y2=1.677
r91 39 41 9.25293 $w=2.98e-07 $l=1.85e-07 $layer=LI1_cond $X=14.055 $Y=0.775
+ $X2=14.055 $Y2=0.96
r92 33 46 8.71084 $w=3.32e-07 $l=6e-08 $layer=POLY_cond $X=13.165 $Y=1.677
+ $X2=13.225 $Y2=1.677
r93 33 44 18.8735 $w=3.32e-07 $l=1.3e-07 $layer=POLY_cond $X=13.165 $Y=1.677
+ $X2=13.035 $Y2=1.677
r94 32 35 6.02816 $w=3.23e-07 $l=1.7e-07 $layer=LI1_cond $X=13.167 $Y=1.635
+ $X2=13.167 $Y2=1.805
r95 32 33 145.28 $w=1.7e-07 $l=1.7e-07 $layer=licon1_POLY $count=1 $X=13.165
+ $Y=1.635 $X2=13.165 $Y2=1.635
r96 30 37 3.70735 $w=2.5e-07 $l=1.18427e-07 $layer=LI1_cond $X=14.12 $Y=1.72
+ $X2=14.04 $Y2=1.805
r97 30 41 49.5829 $w=1.68e-07 $l=7.6e-07 $layer=LI1_cond $X=14.12 $Y=1.72
+ $X2=14.12 $Y2=0.96
r98 25 27 28.9857 $w=3.28e-07 $l=8.3e-07 $layer=LI1_cond $X=14.04 $Y=1.985
+ $X2=14.04 $Y2=2.815
r99 23 37 3.70735 $w=2.5e-07 $l=8.5e-08 $layer=LI1_cond $X=14.04 $Y=1.89
+ $X2=14.04 $Y2=1.805
r100 23 25 3.31764 $w=3.28e-07 $l=9.5e-08 $layer=LI1_cond $X=14.04 $Y=1.89
+ $X2=14.04 $Y2=1.985
r101 22 35 4.53325 $w=1.7e-07 $l=1.63e-07 $layer=LI1_cond $X=13.33 $Y=1.805
+ $X2=13.167 $Y2=1.805
r102 21 37 2.76166 $w=1.7e-07 $l=1.65e-07 $layer=LI1_cond $X=13.875 $Y=1.805
+ $X2=14.04 $Y2=1.805
r103 21 22 35.5561 $w=1.68e-07 $l=5.45e-07 $layer=LI1_cond $X=13.875 $Y=1.805
+ $X2=13.33 $Y2=1.805
r104 17 46 21.3668 $w=1.5e-07 $l=2.07e-07 $layer=POLY_cond $X=13.225 $Y=1.47
+ $X2=13.225 $Y2=1.677
r105 17 19 399.957 $w=1.5e-07 $l=7.8e-07 $layer=POLY_cond $X=13.225 $Y=1.47
+ $X2=13.225 $Y2=0.69
r106 14 44 17.0727 $w=1.8e-07 $l=2.08e-07 $layer=POLY_cond $X=13.035 $Y=1.885
+ $X2=13.035 $Y2=1.677
r107 14 16 153.972 $w=1.8e-07 $l=5.75e-07 $layer=POLY_cond $X=13.035 $Y=1.885
+ $X2=13.035 $Y2=2.46
r108 10 43 21.3668 $w=1.5e-07 $l=2.07e-07 $layer=POLY_cond $X=12.795 $Y=1.47
+ $X2=12.795 $Y2=1.677
r109 10 12 399.957 $w=1.5e-07 $l=7.8e-07 $layer=POLY_cond $X=12.795 $Y=1.47
+ $X2=12.795 $Y2=0.69
r110 7 43 37.747 $w=3.32e-07 $l=3.48827e-07 $layer=POLY_cond $X=12.535 $Y=1.885
+ $X2=12.795 $Y2=1.677
r111 7 9 153.972 $w=1.8e-07 $l=5.75e-07 $layer=POLY_cond $X=12.535 $Y=1.885
+ $X2=12.535 $Y2=2.46
r112 2 27 400 $w=1.7e-07 $l=1.04499e-06 $layer=licon1_PDIFF $count=1 $X=13.895
+ $Y=1.84 $X2=14.04 $Y2=2.815
r113 2 25 400 $w=1.7e-07 $l=2.05061e-07 $layer=licon1_PDIFF $count=1 $X=13.895
+ $Y=1.84 $X2=14.04 $Y2=1.985
r114 1 39 182 $w=1.7e-07 $l=4.71964e-07 $layer=licon1_NDIFF $count=1 $X=13.925
+ $Y=0.37 $X2=14.07 $Y2=0.775
.ends

.subckt PM_SKY130_FD_SC_MS__MUX4_4%A_2199_74# 1 2 3 4 5 6 21 25 29 33 37 41 45
+ 49 54 57 58 59 60 61 63 65 67 69 73 75 78 79 84 87 92 93 98 101 110
c206 110 0 2.3931e-20 $X=16.215 $Y=1.465
c207 63 0 2.5462e-21 $X=13.145 $Y=2.145
c208 61 0 5.98463e-20 $X=12.493 $Y=0.437
c209 59 0 8.44579e-20 $X=12.31 $Y=2.23
r210 110 111 14.1765 $w=3.06e-07 $l=9e-08 $layer=POLY_cond $X=16.215 $Y=1.465
+ $X2=16.305 $Y2=1.465
r211 107 108 17.3268 $w=3.06e-07 $l=1.1e-07 $layer=POLY_cond $X=15.765 $Y=1.465
+ $X2=15.875 $Y2=1.465
r212 106 107 50.4052 $w=3.06e-07 $l=3.2e-07 $layer=POLY_cond $X=15.445 $Y=1.465
+ $X2=15.765 $Y2=1.465
r213 105 106 28.3529 $w=3.06e-07 $l=1.8e-07 $layer=POLY_cond $X=15.265 $Y=1.465
+ $X2=15.445 $Y2=1.465
r214 97 98 8.52431 $w=3.63e-07 $l=1.65e-07 $layer=LI1_cond $X=12.51 $Y=0.437
+ $X2=12.675 $Y2=0.437
r215 92 93 8.68217 $w=3.63e-07 $l=1.7e-07 $layer=LI1_cond $X=11.985 $Y=0.51
+ $X2=12.155 $Y2=0.51
r216 90 91 6.59757 $w=4.18e-07 $l=2.2e-07 $layer=LI1_cond $X=11.265 $Y=0.81
+ $X2=11.265 $Y2=1.03
r217 87 90 3.56709 $w=4.18e-07 $l=1.3e-07 $layer=LI1_cond $X=11.265 $Y=0.68
+ $X2=11.265 $Y2=0.81
r218 85 110 14.1765 $w=3.06e-07 $l=9e-08 $layer=POLY_cond $X=16.125 $Y=1.465
+ $X2=16.215 $Y2=1.465
r219 85 108 39.3791 $w=3.06e-07 $l=2.5e-07 $layer=POLY_cond $X=16.125 $Y=1.465
+ $X2=15.875 $Y2=1.465
r220 84 85 72.64 $w=1.7e-07 $l=3.4e-07 $layer=licon1_POLY $count=2 $X=16.125
+ $Y=1.465 $X2=16.125 $Y2=1.465
r221 82 105 25.2026 $w=3.06e-07 $l=1.6e-07 $layer=POLY_cond $X=15.105 $Y=1.465
+ $X2=15.265 $Y2=1.465
r222 82 103 14.1765 $w=3.06e-07 $l=9e-08 $layer=POLY_cond $X=15.105 $Y=1.465
+ $X2=15.015 $Y2=1.465
r223 81 84 35.621 $w=3.28e-07 $l=1.02e-06 $layer=LI1_cond $X=15.105 $Y=1.465
+ $X2=16.125 $Y2=1.465
r224 81 82 72.64 $w=1.7e-07 $l=3.4e-07 $layer=licon1_POLY $count=2 $X=15.105
+ $Y=1.465 $X2=15.105 $Y2=1.465
r225 79 81 19.5566 $w=3.28e-07 $l=5.6e-07 $layer=LI1_cond $X=14.545 $Y=1.465
+ $X2=15.105 $Y2=1.465
r226 78 79 7.76618 $w=3.3e-07 $l=2.03101e-07 $layer=LI1_cond $X=14.46 $Y=1.3
+ $X2=14.545 $Y2=1.465
r227 77 78 57.0856 $w=1.68e-07 $l=8.75e-07 $layer=LI1_cond $X=14.46 $Y=0.425
+ $X2=14.46 $Y2=1.3
r228 76 101 8.61065 $w=1.7e-07 $l=1.65e-07 $layer=LI1_cond $X=13.675 $Y=0.34
+ $X2=13.51 $Y2=0.34
r229 75 77 6.81649 $w=1.7e-07 $l=1.20208e-07 $layer=LI1_cond $X=14.375 $Y=0.34
+ $X2=14.46 $Y2=0.425
r230 75 76 45.6684 $w=1.68e-07 $l=7e-07 $layer=LI1_cond $X=14.375 $Y=0.34
+ $X2=13.675 $Y2=0.34
r231 71 101 0.89609 $w=3.3e-07 $l=8.5e-08 $layer=LI1_cond $X=13.51 $Y=0.425
+ $X2=13.51 $Y2=0.34
r232 71 73 2.44458 $w=3.28e-07 $l=7e-08 $layer=LI1_cond $X=13.51 $Y=0.425
+ $X2=13.51 $Y2=0.495
r233 67 100 2.6405 $w=3.3e-07 $l=8.5e-08 $layer=LI1_cond $X=13.31 $Y=2.23
+ $X2=13.31 $Y2=2.145
r234 67 69 8.90524 $w=3.28e-07 $l=2.55e-07 $layer=LI1_cond $X=13.31 $Y=2.23
+ $X2=13.31 $Y2=2.485
r235 65 101 8.61065 $w=1.7e-07 $l=1.65e-07 $layer=LI1_cond $X=13.345 $Y=0.34
+ $X2=13.51 $Y2=0.34
r236 65 98 43.7112 $w=1.68e-07 $l=6.7e-07 $layer=LI1_cond $X=13.345 $Y=0.34
+ $X2=12.675 $Y2=0.34
r237 64 95 4.746 $w=1.7e-07 $l=1.90526e-07 $layer=LI1_cond $X=12.475 $Y=2.145
+ $X2=12.31 $Y2=2.09
r238 63 100 5.12568 $w=1.7e-07 $l=1.65e-07 $layer=LI1_cond $X=13.145 $Y=2.145
+ $X2=13.31 $Y2=2.145
r239 63 64 43.7112 $w=1.68e-07 $l=6.7e-07 $layer=LI1_cond $X=13.145 $Y=2.145
+ $X2=12.475 $Y2=2.145
r240 61 97 0.536754 $w=3.63e-07 $l=1.7e-08 $layer=LI1_cond $X=12.493 $Y=0.437
+ $X2=12.51 $Y2=0.437
r241 61 93 10.6719 $w=3.63e-07 $l=3.38e-07 $layer=LI1_cond $X=12.493 $Y=0.437
+ $X2=12.155 $Y2=0.437
r242 59 95 3.02018 $w=3.3e-07 $l=1.4e-07 $layer=LI1_cond $X=12.31 $Y=2.23
+ $X2=12.31 $Y2=2.09
r243 59 60 11.699 $w=3.28e-07 $l=3.35e-07 $layer=LI1_cond $X=12.31 $Y=2.23
+ $X2=12.31 $Y2=2.565
r244 57 60 7.76618 $w=1.7e-07 $l=2.03101e-07 $layer=LI1_cond $X=12.145 $Y=2.65
+ $X2=12.31 $Y2=2.565
r245 57 58 43.7112 $w=1.68e-07 $l=6.7e-07 $layer=LI1_cond $X=12.145 $Y=2.65
+ $X2=11.475 $Y2=2.65
r246 56 87 6.07598 $w=1.7e-07 $l=2.1e-07 $layer=LI1_cond $X=11.475 $Y=0.68
+ $X2=11.265 $Y2=0.68
r247 56 92 33.2727 $w=1.68e-07 $l=5.1e-07 $layer=LI1_cond $X=11.475 $Y=0.68
+ $X2=11.985 $Y2=0.68
r248 54 91 37.5417 $w=3.28e-07 $l=1.075e-06 $layer=LI1_cond $X=11.31 $Y=2.105
+ $X2=11.31 $Y2=1.03
r249 52 58 7.76618 $w=1.7e-07 $l=2.03101e-07 $layer=LI1_cond $X=11.31 $Y=2.565
+ $X2=11.475 $Y2=2.65
r250 52 54 16.0644 $w=3.28e-07 $l=4.6e-07 $layer=LI1_cond $X=11.31 $Y=2.565
+ $X2=11.31 $Y2=2.105
r251 47 111 19.4347 $w=1.5e-07 $l=1.65e-07 $layer=POLY_cond $X=16.305 $Y=1.3
+ $X2=16.305 $Y2=1.465
r252 47 49 287.149 $w=1.5e-07 $l=5.6e-07 $layer=POLY_cond $X=16.305 $Y=1.3
+ $X2=16.305 $Y2=0.74
r253 43 110 15.178 $w=1.8e-07 $l=1.65e-07 $layer=POLY_cond $X=16.215 $Y=1.63
+ $X2=16.215 $Y2=1.465
r254 43 45 299.306 $w=1.8e-07 $l=7.7e-07 $layer=POLY_cond $X=16.215 $Y=1.63
+ $X2=16.215 $Y2=2.4
r255 39 108 19.4347 $w=1.5e-07 $l=1.65e-07 $layer=POLY_cond $X=15.875 $Y=1.3
+ $X2=15.875 $Y2=1.465
r256 39 41 287.149 $w=1.5e-07 $l=5.6e-07 $layer=POLY_cond $X=15.875 $Y=1.3
+ $X2=15.875 $Y2=0.74
r257 35 107 15.178 $w=1.8e-07 $l=1.65e-07 $layer=POLY_cond $X=15.765 $Y=1.63
+ $X2=15.765 $Y2=1.465
r258 35 37 299.306 $w=1.8e-07 $l=7.7e-07 $layer=POLY_cond $X=15.765 $Y=1.63
+ $X2=15.765 $Y2=2.4
r259 31 106 19.4347 $w=1.5e-07 $l=1.65e-07 $layer=POLY_cond $X=15.445 $Y=1.3
+ $X2=15.445 $Y2=1.465
r260 31 33 287.149 $w=1.5e-07 $l=5.6e-07 $layer=POLY_cond $X=15.445 $Y=1.3
+ $X2=15.445 $Y2=0.74
r261 27 105 15.178 $w=1.8e-07 $l=1.65e-07 $layer=POLY_cond $X=15.265 $Y=1.63
+ $X2=15.265 $Y2=1.465
r262 27 29 299.306 $w=1.8e-07 $l=7.7e-07 $layer=POLY_cond $X=15.265 $Y=1.63
+ $X2=15.265 $Y2=2.4
r263 23 103 19.4347 $w=1.5e-07 $l=1.65e-07 $layer=POLY_cond $X=15.015 $Y=1.3
+ $X2=15.015 $Y2=1.465
r264 23 25 287.149 $w=1.5e-07 $l=5.6e-07 $layer=POLY_cond $X=15.015 $Y=1.3
+ $X2=15.015 $Y2=0.74
r265 19 103 31.5033 $w=3.06e-07 $l=2.70185e-07 $layer=POLY_cond $X=14.815
+ $Y=1.63 $X2=15.015 $Y2=1.465
r266 19 21 299.306 $w=1.8e-07 $l=7.7e-07 $layer=POLY_cond $X=14.815 $Y=1.63
+ $X2=14.815 $Y2=2.4
r267 6 100 600 $w=1.7e-07 $l=2.6163e-07 $layer=licon1_PDIFF $count=1 $X=13.125
+ $Y=1.96 $X2=13.31 $Y2=2.145
r268 6 69 300 $w=1.7e-07 $l=6.10533e-07 $layer=licon1_PDIFF $count=2 $X=13.125
+ $Y=1.96 $X2=13.31 $Y2=2.485
r269 5 95 300 $w=1.7e-07 $l=2.50799e-07 $layer=licon1_PDIFF $count=2 $X=12.125
+ $Y=1.96 $X2=12.31 $Y2=2.115
r270 4 54 300 $w=1.7e-07 $l=2.05061e-07 $layer=licon1_PDIFF $count=2 $X=11.165
+ $Y=1.96 $X2=11.31 $Y2=2.105
r271 3 73 91 $w=1.7e-07 $l=1.92614e-07 $layer=licon1_NDIFF $count=2 $X=13.3
+ $Y=0.37 $X2=13.44 $Y2=0.495
r272 2 97 91 $w=1.7e-07 $l=5.64358e-07 $layer=licon1_NDIFF $count=2 $X=12.02
+ $Y=0.37 $X2=12.51 $Y2=0.53
r273 1 90 182 $w=1.7e-07 $l=5.07346e-07 $layer=licon1_NDIFF $count=1 $X=10.995
+ $Y=0.37 $X2=11.14 $Y2=0.81
.ends

.subckt PM_SKY130_FD_SC_MS__MUX4_4%VPWR 1 2 3 4 5 6 7 8 9 10 31 33 39 43 47 53
+ 57 63 65 67 70 73 77 78 80 81 83 84 85 87 92 97 105 126 134 137 140 143 151
r180 150 151 9.3 $w=1.7e-07 $l=1.7e-07 $layer=mcon $count=1 $X=16.56 $Y=3.33
+ $X2=16.56 $Y2=3.33
r181 143 146 9.7783 $w=3.28e-07 $l=2.8e-07 $layer=LI1_cond $X=8.485 $Y=3.05
+ $X2=8.485 $Y2=3.33
r182 140 141 9.3 $w=1.7e-07 $l=1.7e-07 $layer=mcon $count=1 $X=5.52 $Y=3.33
+ $X2=5.52 $Y2=3.33
r183 137 138 9.3 $w=1.7e-07 $l=1.7e-07 $layer=mcon $count=1 $X=2.16 $Y=3.33
+ $X2=2.16 $Y2=3.33
r184 134 135 9.3 $w=1.7e-07 $l=1.7e-07 $layer=mcon $count=1 $X=1.2 $Y=3.33
+ $X2=1.2 $Y2=3.33
r185 131 132 9.3 $w=1.7e-07 $l=1.7e-07 $layer=mcon $count=1 $X=0.24 $Y=3.33
+ $X2=0.24 $Y2=3.33
r186 129 151 0.133793 $w=4.9e-07 $l=4.8e-07 $layer=MET1_cond $X=16.08 $Y=3.33
+ $X2=16.56 $Y2=3.33
r187 128 129 4.65 $w=1.7e-07 $l=3.4e-07 $layer=mcon $count=2 $X=16.08 $Y=3.33
+ $X2=16.08 $Y2=3.33
r188 126 150 4.67153 $w=1.7e-07 $l=2.37e-07 $layer=LI1_cond $X=16.325 $Y=3.33
+ $X2=16.562 $Y2=3.33
r189 126 128 15.984 $w=1.68e-07 $l=2.45e-07 $layer=LI1_cond $X=16.325 $Y=3.33
+ $X2=16.08 $Y2=3.33
r190 125 129 0.267585 $w=4.9e-07 $l=9.6e-07 $layer=MET1_cond $X=15.12 $Y=3.33
+ $X2=16.08 $Y2=3.33