* File: sky130_fd_sc_ms__bufbuf_16.pex.spice
* Created: Wed Sep  2 11:59:48 2020
* Program "Calibre xRC"
* Version "v2018.4_34.26"
* Nominal Temperature: 27C
* Circuit Temperature: 27C
* 
.subckt PM_SKY130_FD_SC_MS__BUFBUF_16%A 3 7 9 13 16
c34 3 0 5.52684e-20 $X=0.505 $Y=2.4
r35 15 16 0.874306 $w=3.3e-07 $l=5e-09 $layer=POLY_cond $X=0.505 $Y=1.465
+ $X2=0.51 $Y2=1.465
r36 12 15 28.8521 $w=3.3e-07 $l=1.65e-07 $layer=POLY_cond $X=0.34 $Y=1.465
+ $X2=0.505 $Y2=1.465
r37 12 13 145.28 $w=1.7e-07 $l=1.7e-07 $layer=licon1_POLY $count=1 $X=0.34
+ $Y=1.465 $X2=0.34 $Y2=1.465
r38 9 13 6.06549 $w=3.78e-07 $l=2e-07 $layer=LI1_cond $X=0.315 $Y=1.665
+ $X2=0.315 $Y2=1.465
r39 5 16 21.2229 $w=1.5e-07 $l=1.65e-07 $layer=POLY_cond $X=0.51 $Y=1.3 $X2=0.51
+ $Y2=1.465
r40 5 7 287.149 $w=1.5e-07 $l=5.6e-07 $layer=POLY_cond $X=0.51 $Y=1.3 $X2=0.51
+ $Y2=0.74
r41 1 15 16.9318 $w=1.8e-07 $l=1.65e-07 $layer=POLY_cond $X=0.505 $Y=1.63
+ $X2=0.505 $Y2=1.465
r42 1 3 299.306 $w=1.8e-07 $l=7.7e-07 $layer=POLY_cond $X=0.505 $Y=1.63
+ $X2=0.505 $Y2=2.4
.ends

.subckt PM_SKY130_FD_SC_MS__BUFBUF_16%A_27_368# 1 2 9 13 17 21 25 29 31 33 37 39
+ 40 41 44 46 52 57 66
c111 9 0 1.78628e-19 $X=0.94 $Y=0.74
r112 65 66 8.74306 $w=3.3e-07 $l=5e-08 $layer=POLY_cond $X=1.805 $Y=1.465
+ $X2=1.855 $Y2=1.465
r113 62 63 6.12014 $w=3.3e-07 $l=3.5e-08 $layer=POLY_cond $X=1.37 $Y=1.465
+ $X2=1.405 $Y2=1.465
r114 58 60 2.62292 $w=3.3e-07 $l=1.5e-08 $layer=POLY_cond $X=0.94 $Y=1.465
+ $X2=0.955 $Y2=1.465
r115 53 65 16.6118 $w=3.3e-07 $l=9.5e-08 $layer=POLY_cond $X=1.71 $Y=1.465
+ $X2=1.805 $Y2=1.465
r116 53 63 53.3327 $w=3.3e-07 $l=3.05e-07 $layer=POLY_cond $X=1.71 $Y=1.465
+ $X2=1.405 $Y2=1.465
r117 52 53 96.8533 $w=1.7e-07 $l=2.55e-07 $layer=licon1_POLY $count=1 $X=1.71
+ $Y=1.465 $X2=1.71 $Y2=1.465
r118 50 62 59.4528 $w=3.3e-07 $l=3.4e-07 $layer=POLY_cond $X=1.03 $Y=1.465
+ $X2=1.37 $Y2=1.465
r119 50 60 13.1146 $w=3.3e-07 $l=7.5e-08 $layer=POLY_cond $X=1.03 $Y=1.465
+ $X2=0.955 $Y2=1.465
r120 49 52 23.7473 $w=3.28e-07 $l=6.8e-07 $layer=LI1_cond $X=1.03 $Y=1.465
+ $X2=1.71 $Y2=1.465
r121 49 50 96.8533 $w=1.7e-07 $l=2.55e-07 $layer=licon1_POLY $count=1 $X=1.03
+ $Y=1.465 $X2=1.03 $Y2=1.465
r122 47 57 0.89609 $w=3.3e-07 $l=8.5e-08 $layer=LI1_cond $X=0.845 $Y=1.465
+ $X2=0.76 $Y2=1.465
r123 47 49 6.46067 $w=3.28e-07 $l=1.85e-07 $layer=LI1_cond $X=0.845 $Y=1.465
+ $X2=1.03 $Y2=1.465
r124 45 57 8.61065 $w=1.7e-07 $l=1.65e-07 $layer=LI1_cond $X=0.76 $Y=1.63
+ $X2=0.76 $Y2=1.465
r125 45 46 20.877 $w=1.68e-07 $l=3.2e-07 $layer=LI1_cond $X=0.76 $Y=1.63
+ $X2=0.76 $Y2=1.95
r126 44 57 8.61065 $w=1.7e-07 $l=1.65e-07 $layer=LI1_cond $X=0.76 $Y=1.3
+ $X2=0.76 $Y2=1.465
r127 43 44 11.0909 $w=1.68e-07 $l=1.7e-07 $layer=LI1_cond $X=0.76 $Y=1.13
+ $X2=0.76 $Y2=1.3
r128 42 56 5.12568 $w=1.7e-07 $l=1.65e-07 $layer=LI1_cond $X=0.445 $Y=2.035
+ $X2=0.28 $Y2=2.035
r129 41 46 6.81649 $w=1.7e-07 $l=1.20208e-07 $layer=LI1_cond $X=0.675 $Y=2.035
+ $X2=0.76 $Y2=1.95
r130 41 42 15.0053 $w=1.68e-07 $l=2.3e-07 $layer=LI1_cond $X=0.675 $Y=2.035
+ $X2=0.445 $Y2=2.035
r131 39 43 6.81649 $w=1.7e-07 $l=1.20208e-07 $layer=LI1_cond $X=0.675 $Y=1.045
+ $X2=0.76 $Y2=1.13
r132 39 40 19.246 $w=1.68e-07 $l=2.95e-07 $layer=LI1_cond $X=0.675 $Y=1.045
+ $X2=0.38 $Y2=1.045
r133 35 40 7.14316 $w=1.7e-07 $l=1.62019e-07 $layer=LI1_cond $X=0.255 $Y=0.96
+ $X2=0.38 $Y2=1.045
r134 35 37 20.5135 $w=2.48e-07 $l=4.45e-07 $layer=LI1_cond $X=0.255 $Y=0.96
+ $X2=0.255 $Y2=0.515
r135 31 56 2.6405 $w=3.3e-07 $l=8.5e-08 $layer=LI1_cond $X=0.28 $Y=2.12 $X2=0.28
+ $Y2=2.035
r136 31 33 24.2711 $w=3.28e-07 $l=6.95e-07 $layer=LI1_cond $X=0.28 $Y=2.12
+ $X2=0.28 $Y2=2.815
r137 27 66 16.9318 $w=1.8e-07 $l=1.65e-07 $layer=POLY_cond $X=1.855 $Y=1.63
+ $X2=1.855 $Y2=1.465
r138 27 29 299.306 $w=1.8e-07 $l=7.7e-07 $layer=POLY_cond $X=1.855 $Y=1.63
+ $X2=1.855 $Y2=2.4
r139 23 65 21.2229 $w=1.5e-07 $l=1.65e-07 $layer=POLY_cond $X=1.805 $Y=1.3
+ $X2=1.805 $Y2=1.465
r140 23 25 287.149 $w=1.5e-07 $l=5.6e-07 $layer=POLY_cond $X=1.805 $Y=1.3
+ $X2=1.805 $Y2=0.74
r141 19 63 16.9318 $w=1.8e-07 $l=1.65e-07 $layer=POLY_cond $X=1.405 $Y=1.63
+ $X2=1.405 $Y2=1.465
r142 19 21 299.306 $w=1.8e-07 $l=7.7e-07 $layer=POLY_cond $X=1.405 $Y=1.63
+ $X2=1.405 $Y2=2.4
r143 15 62 21.2229 $w=1.5e-07 $l=1.65e-07 $layer=POLY_cond $X=1.37 $Y=1.3
+ $X2=1.37 $Y2=1.465
r144 15 17 287.149 $w=1.5e-07 $l=5.6e-07 $layer=POLY_cond $X=1.37 $Y=1.3
+ $X2=1.37 $Y2=0.74
r145 11 60 16.9318 $w=1.8e-07 $l=1.65e-07 $layer=POLY_cond $X=0.955 $Y=1.63
+ $X2=0.955 $Y2=1.465
r146 11 13 299.306 $w=1.8e-07 $l=7.7e-07 $layer=POLY_cond $X=0.955 $Y=1.63
+ $X2=0.955 $Y2=2.4
r147 7 58 21.2229 $w=1.5e-07 $l=1.65e-07 $layer=POLY_cond $X=0.94 $Y=1.3
+ $X2=0.94 $Y2=1.465
r148 7 9 287.149 $w=1.5e-07 $l=5.6e-07 $layer=POLY_cond $X=0.94 $Y=1.3 $X2=0.94
+ $Y2=0.74
r149 2 56 400 $w=1.7e-07 $l=3.39853e-07 $layer=licon1_PDIFF $count=1 $X=0.135
+ $Y=1.84 $X2=0.28 $Y2=2.115
r150 2 33 400 $w=1.7e-07 $l=1.04499e-06 $layer=licon1_PDIFF $count=1 $X=0.135
+ $Y=1.84 $X2=0.28 $Y2=2.815
r151 1 37 91 $w=1.7e-07 $l=2.05061e-07 $layer=licon1_NDIFF $count=2 $X=0.15
+ $Y=0.37 $X2=0.295 $Y2=0.515
.ends

.subckt PM_SKY130_FD_SC_MS__BUFBUF_16%A_203_74# 1 2 3 4 15 19 23 27 31 35 39 43
+ 47 51 55 59 63 69 71 72 73 74 77 81 86 88 94 97 98 99 114
c196 74 0 5.52684e-20 $X=1.345 $Y=1.885
c197 72 0 1.78628e-19 $X=1.24 $Y=1.045
c198 55 0 6.44981e-20 $X=5.14 $Y=2.4
r199 113 114 2.62292 $w=3.3e-07 $l=1.5e-08 $layer=POLY_cond $X=5.14 $Y=1.485
+ $X2=5.155 $Y2=1.485
r200 112 113 72.5674 $w=3.3e-07 $l=4.15e-07 $layer=POLY_cond $X=4.725 $Y=1.485
+ $X2=5.14 $Y2=1.485
r201 111 112 6.12014 $w=3.3e-07 $l=3.5e-08 $layer=POLY_cond $X=4.69 $Y=1.485
+ $X2=4.725 $Y2=1.485
r202 108 109 0.874306 $w=3.3e-07 $l=5e-09 $layer=POLY_cond $X=4.225 $Y=1.485
+ $X2=4.23 $Y2=1.485
r203 107 108 75.1904 $w=3.3e-07 $l=4.3e-07 $layer=POLY_cond $X=3.795 $Y=1.485
+ $X2=4.225 $Y2=1.485
r204 106 107 2.62292 $w=3.3e-07 $l=1.5e-08 $layer=POLY_cond $X=3.78 $Y=1.485
+ $X2=3.795 $Y2=1.485
r205 105 106 78.6876 $w=3.3e-07 $l=4.5e-07 $layer=POLY_cond $X=3.33 $Y=1.485
+ $X2=3.78 $Y2=1.485
r206 104 105 6.12014 $w=3.3e-07 $l=3.5e-08 $layer=POLY_cond $X=3.295 $Y=1.485
+ $X2=3.33 $Y2=1.485
r207 100 102 2.62292 $w=3.3e-07 $l=1.5e-08 $layer=POLY_cond $X=2.865 $Y=1.485
+ $X2=2.88 $Y2=1.485
r208 95 111 65.573 $w=3.3e-07 $l=3.75e-07 $layer=POLY_cond $X=4.315 $Y=1.485
+ $X2=4.69 $Y2=1.485
r209 95 109 14.8632 $w=3.3e-07 $l=8.5e-08 $layer=POLY_cond $X=4.315 $Y=1.485
+ $X2=4.23 $Y2=1.485
r210 94 95 58.112 $w=1.7e-07 $l=4.25e-07 $layer=licon1_POLY $count=2 $X=4.315
+ $Y=1.485 $X2=4.315 $Y2=1.485
r211 92 104 59.4528 $w=3.3e-07 $l=3.4e-07 $layer=POLY_cond $X=2.955 $Y=1.485
+ $X2=3.295 $Y2=1.485
r212 92 102 13.1146 $w=3.3e-07 $l=7.5e-08 $layer=POLY_cond $X=2.955 $Y=1.485
+ $X2=2.88 $Y2=1.485
r213 91 94 47.4946 $w=3.28e-07 $l=1.36e-06 $layer=LI1_cond $X=2.955 $Y=1.485
+ $X2=4.315 $Y2=1.485
r214 91 92 58.112 $w=1.7e-07 $l=4.25e-07 $layer=licon1_POLY $count=2 $X=2.955
+ $Y=1.485 $X2=2.955 $Y2=1.485
r215 89 99 0.63164 $w=3.3e-07 $l=1e-07 $layer=LI1_cond $X=2.245 $Y=1.485
+ $X2=2.145 $Y2=1.485
r216 89 91 24.795 $w=3.28e-07 $l=7.1e-07 $layer=LI1_cond $X=2.245 $Y=1.485
+ $X2=2.955 $Y2=1.485
r217 88 98 3.52026 $w=2.65e-07 $l=1.12916e-07 $layer=LI1_cond $X=2.145 $Y=1.8
+ $X2=2.08 $Y2=1.885
r218 87 99 8.10876 $w=1.85e-07 $l=1.65e-07 $layer=LI1_cond $X=2.145 $Y=1.65
+ $X2=2.145 $Y2=1.485
r219 87 88 8.31818 $w=1.98e-07 $l=1.5e-07 $layer=LI1_cond $X=2.145 $Y=1.65
+ $X2=2.145 $Y2=1.8
r220 86 99 8.10876 $w=1.85e-07 $l=1.72337e-07 $layer=LI1_cond $X=2.13 $Y=1.32
+ $X2=2.145 $Y2=1.485
r221 85 97 3.52026 $w=2.65e-07 $l=1.30767e-07 $layer=LI1_cond $X=2.13 $Y=1.13
+ $X2=2.035 $Y2=1.045
r222 85 86 12.3957 $w=1.68e-07 $l=1.9e-07 $layer=LI1_cond $X=2.13 $Y=1.13
+ $X2=2.13 $Y2=1.32
r223 81 83 28.9857 $w=3.28e-07 $l=8.3e-07 $layer=LI1_cond $X=2.08 $Y=1.985
+ $X2=2.08 $Y2=2.815
r224 79 98 3.52026 $w=2.65e-07 $l=8.5e-08 $layer=LI1_cond $X=2.08 $Y=1.97
+ $X2=2.08 $Y2=1.885
r225 79 81 0.523838 $w=3.28e-07 $l=1.5e-08 $layer=LI1_cond $X=2.08 $Y=1.97
+ $X2=2.08 $Y2=1.985
r226 75 97 3.52026 $w=2.65e-07 $l=8.5e-08 $layer=LI1_cond $X=2.035 $Y=0.96
+ $X2=2.035 $Y2=1.045
r227 75 77 14.2455 $w=3.58e-07 $l=4.45e-07 $layer=LI1_cond $X=2.035 $Y=0.96
+ $X2=2.035 $Y2=0.515
r228 73 98 2.98021 $w=1.7e-07 $l=1.65e-07 $layer=LI1_cond $X=1.915 $Y=1.885
+ $X2=2.08 $Y2=1.885
r229 73 74 37.1872 $w=1.68e-07 $l=5.7e-07 $layer=LI1_cond $X=1.915 $Y=1.885
+ $X2=1.345 $Y2=1.885
r230 71 97 2.98021 $w=1.7e-07 $l=1.8e-07 $layer=LI1_cond $X=1.855 $Y=1.045
+ $X2=2.035 $Y2=1.045
r231 71 72 40.123 $w=1.68e-07 $l=6.15e-07 $layer=LI1_cond $X=1.855 $Y=1.045
+ $X2=1.24 $Y2=1.045
r232 67 72 6.81649 $w=1.7e-07 $l=1.20208e-07 $layer=LI1_cond $X=1.155 $Y=0.96
+ $X2=1.24 $Y2=1.045
r233 67 69 29.0321 $w=1.68e-07 $l=4.45e-07 $layer=LI1_cond $X=1.155 $Y=0.96
+ $X2=1.155 $Y2=0.515
r234 63 65 28.9857 $w=3.28e-07 $l=8.3e-07 $layer=LI1_cond $X=1.18 $Y=1.985
+ $X2=1.18 $Y2=2.815
r235 61 74 7.76618 $w=1.7e-07 $l=2.03101e-07 $layer=LI1_cond $X=1.18 $Y=1.97
+ $X2=1.345 $Y2=1.885
r236 61 63 0.523838 $w=3.28e-07 $l=1.5e-08 $layer=LI1_cond $X=1.18 $Y=1.97
+ $X2=1.18 $Y2=1.985
r237 57 114 21.2229 $w=1.5e-07 $l=1.65e-07 $layer=POLY_cond $X=5.155 $Y=1.32
+ $X2=5.155 $Y2=1.485
r238 57 59 297.404 $w=1.5e-07 $l=5.8e-07 $layer=POLY_cond $X=5.155 $Y=1.32
+ $X2=5.155 $Y2=0.74
r239 53 113 16.9318 $w=1.8e-07 $l=1.65e-07 $layer=POLY_cond $X=5.14 $Y=1.65
+ $X2=5.14 $Y2=1.485
r240 53 55 291.532 $w=1.8e-07 $l=7.5e-07 $layer=POLY_cond $X=5.14 $Y=1.65
+ $X2=5.14 $Y2=2.4
r241 49 112 21.2229 $w=1.5e-07 $l=1.65e-07 $layer=POLY_cond $X=4.725 $Y=1.32
+ $X2=4.725 $Y2=1.485
r242 49 51 297.404 $w=1.5e-07 $l=5.8e-07 $layer=POLY_cond $X=4.725 $Y=1.32
+ $X2=4.725 $Y2=0.74
r243 45 111 16.9318 $w=1.8e-07 $l=1.65e-07 $layer=POLY_cond $X=4.69 $Y=1.65
+ $X2=4.69 $Y2=1.485
r244 45 47 291.532 $w=1.8e-07 $l=7.5e-07 $layer=POLY_cond $X=4.69 $Y=1.65
+ $X2=4.69 $Y2=2.4
r245 41 108 21.2229 $w=1.5e-07 $l=1.65e-07 $layer=POLY_cond $X=4.225 $Y=1.32
+ $X2=4.225 $Y2=1.485
r246 41 43 297.404 $w=1.5e-07 $l=5.8e-07 $layer=POLY_cond $X=4.225 $Y=1.32
+ $X2=4.225 $Y2=0.74
r247 37 109 16.9318 $w=1.8e-07 $l=1.65e-07 $layer=POLY_cond $X=4.23 $Y=1.65
+ $X2=4.23 $Y2=1.485
r248 37 39 291.532 $w=1.8e-07 $l=7.5e-07 $layer=POLY_cond $X=4.23 $Y=1.65
+ $X2=4.23 $Y2=2.4
r249 33 107 21.2229 $w=1.5e-07 $l=1.65e-07 $layer=POLY_cond $X=3.795 $Y=1.32
+ $X2=3.795 $Y2=1.485
r250 33 35 297.404 $w=1.5e-07 $l=5.8e-07 $layer=POLY_cond $X=3.795 $Y=1.32
+ $X2=3.795 $Y2=0.74
r251 29 106 16.9318 $w=1.8e-07 $l=1.65e-07 $layer=POLY_cond $X=3.78 $Y=1.65
+ $X2=3.78 $Y2=1.485
r252 29 31 291.532 $w=1.8e-07 $l=7.5e-07 $layer=POLY_cond $X=3.78 $Y=1.65
+ $X2=3.78 $Y2=2.4
r253 25 105 16.9318 $w=1.8e-07 $l=1.65e-07 $layer=POLY_cond $X=3.33 $Y=1.65
+ $X2=3.33 $Y2=1.485
r254 25 27 291.532 $w=1.8e-07 $l=7.5e-07 $layer=POLY_cond $X=3.33 $Y=1.65
+ $X2=3.33 $Y2=2.4
r255 21 104 21.2229 $w=1.5e-07 $l=1.65e-07 $layer=POLY_cond $X=3.295 $Y=1.32
+ $X2=3.295 $Y2=1.485
r256 21 23 297.404 $w=1.5e-07 $l=5.8e-07 $layer=POLY_cond $X=3.295 $Y=1.32
+ $X2=3.295 $Y2=0.74
r257 17 102 16.9318 $w=1.8e-07 $l=1.65e-07 $layer=POLY_cond $X=2.88 $Y=1.65
+ $X2=2.88 $Y2=1.485
r258 17 19 291.532 $w=1.8e-07 $l=7.5e-07 $layer=POLY_cond $X=2.88 $Y=1.65
+ $X2=2.88 $Y2=2.4
r259 13 100 21.2229 $w=1.5e-07 $l=1.65e-07 $layer=POLY_cond $X=2.865 $Y=1.32
+ $X2=2.865 $Y2=1.485
r260 13 15 297.404 $w=1.5e-07 $l=5.8e-07 $layer=POLY_cond $X=2.865 $Y=1.32
+ $X2=2.865 $Y2=0.74
r261 4 83 400 $w=1.7e-07 $l=1.04031e-06 $layer=licon1_PDIFF $count=1 $X=1.945
+ $Y=1.84 $X2=2.08 $Y2=2.815
r262 4 81 400 $w=1.7e-07 $l=2.01494e-07 $layer=licon1_PDIFF $count=1 $X=1.945
+ $Y=1.84 $X2=2.08 $Y2=1.985
r263 3 65 400 $w=1.7e-07 $l=1.04031e-06 $layer=licon1_PDIFF $count=1 $X=1.045
+ $Y=1.84 $X2=1.18 $Y2=2.815
r264 3 63 400 $w=1.7e-07 $l=2.01494e-07 $layer=licon1_PDIFF $count=1 $X=1.045
+ $Y=1.84 $X2=1.18 $Y2=1.985
r265 2 77 91 $w=1.7e-07 $l=2.03286e-07 $layer=licon1_NDIFF $count=2 $X=1.88
+ $Y=0.37 $X2=2.02 $Y2=0.515
r266 1 69 91 $w=1.7e-07 $l=2.03286e-07 $layer=licon1_NDIFF $count=2 $X=1.015
+ $Y=0.37 $X2=1.155 $Y2=0.515
.ends

.subckt PM_SKY130_FD_SC_MS__BUFBUF_16%A_588_74# 1 2 3 4 5 6 21 25 29 33 37 41 45
+ 49 53 57 61 65 69 73 77 81 85 89 93 97 101 105 109 113 117 121 125 129 133 137
+ 141 145 149 151 153 155 156 157 161 165 167 169 171 173 177 180 184 185 186
+ 210 220 227 234 241 248 255 262 266
c490 171 0 1.38532e-19 $X=4.915 $Y=1.99
c491 125 0 9.40629e-20 $X=11.455 $Y=0.74
c492 41 0 1.04236e-19 $X=6.55 $Y=2.4
r493 297 299 2.0766 $w=4.7e-07 $l=8e-08 $layer=LI1_cond $X=5.077 $Y=1.905
+ $X2=5.077 $Y2=1.985
r494 265 266 9.61737 $w=3.3e-07 $l=5.5e-08 $layer=POLY_cond $X=12.395 $Y=1.485
+ $X2=12.45 $Y2=1.485
r495 264 265 75.1904 $w=3.3e-07 $l=4.3e-07 $layer=POLY_cond $X=11.965 $Y=1.485
+ $X2=12.395 $Y2=1.485
r496 263 264 2.62292 $w=3.3e-07 $l=1.5e-08 $layer=POLY_cond $X=11.95 $Y=1.485
+ $X2=11.965 $Y2=1.485
r497 261 263 46.3382 $w=3.3e-07 $l=2.65e-07 $layer=POLY_cond $X=11.685 $Y=1.485
+ $X2=11.95 $Y2=1.485
r498 261 262 145.28 $w=1.7e-07 $l=1.7e-07 $layer=licon1_POLY $count=1 $X=11.685
+ $Y=1.485 $X2=11.685 $Y2=1.485
r499 259 261 32.3493 $w=3.3e-07 $l=1.85e-07 $layer=POLY_cond $X=11.5 $Y=1.485
+ $X2=11.685 $Y2=1.485
r500 258 259 7.86876 $w=3.3e-07 $l=4.5e-08 $layer=POLY_cond $X=11.455 $Y=1.485
+ $X2=11.5 $Y2=1.485
r501 257 258 70.8188 $w=3.3e-07 $l=4.05e-07 $layer=POLY_cond $X=11.05 $Y=1.485
+ $X2=11.455 $Y2=1.485
r502 256 257 4.37153 $w=3.3e-07 $l=2.5e-08 $layer=POLY_cond $X=11.025 $Y=1.485
+ $X2=11.05 $Y2=1.485
r503 254 256 46.3382 $w=3.3e-07 $l=2.65e-07 $layer=POLY_cond $X=10.76 $Y=1.485
+ $X2=11.025 $Y2=1.485
r504 254 255 145.28 $w=1.7e-07 $l=1.7e-07 $layer=licon1_POLY $count=1 $X=10.76
+ $Y=1.485 $X2=10.76 $Y2=1.485
r505 252 254 27.9778 $w=3.3e-07 $l=1.6e-07 $layer=POLY_cond $X=10.6 $Y=1.485
+ $X2=10.76 $Y2=1.485
r506 251 252 13.1146 $w=3.3e-07 $l=7.5e-08 $layer=POLY_cond $X=10.525 $Y=1.485
+ $X2=10.6 $Y2=1.485
r507 250 251 65.573 $w=3.3e-07 $l=3.75e-07 $layer=POLY_cond $X=10.15 $Y=1.485
+ $X2=10.525 $Y2=1.485
r508 249 250 9.61737 $w=3.3e-07 $l=5.5e-08 $layer=POLY_cond $X=10.095 $Y=1.485
+ $X2=10.15 $Y2=1.485
r509 247 249 48.9612 $w=3.3e-07 $l=2.8e-07 $layer=POLY_cond $X=9.815 $Y=1.485
+ $X2=10.095 $Y2=1.485
r510 247 248 145.28 $w=1.7e-07 $l=1.7e-07 $layer=licon1_POLY $count=1 $X=9.815
+ $Y=1.485 $X2=9.815 $Y2=1.485
r511 245 247 20.109 $w=3.3e-07 $l=1.15e-07 $layer=POLY_cond $X=9.7 $Y=1.485
+ $X2=9.815 $Y2=1.485
r512 244 245 18.3604 $w=3.3e-07 $l=1.05e-07 $layer=POLY_cond $X=9.595 $Y=1.485
+ $X2=9.7 $Y2=1.485
r513 243 244 60.3271 $w=3.3e-07 $l=3.45e-07 $layer=POLY_cond $X=9.25 $Y=1.485
+ $X2=9.595 $Y2=1.485
r514 242 243 14.8632 $w=3.3e-07 $l=8.5e-08 $layer=POLY_cond $X=9.165 $Y=1.485
+ $X2=9.25 $Y2=1.485
r515 240 242 45.4639 $w=3.3e-07 $l=2.6e-07 $layer=POLY_cond $X=8.905 $Y=1.485
+ $X2=9.165 $Y2=1.485
r516 240 241 145.28 $w=1.7e-07 $l=1.7e-07 $layer=licon1_POLY $count=1 $X=8.905
+ $Y=1.485 $X2=8.905 $Y2=1.485
r517 238 240 18.3604 $w=3.3e-07 $l=1.05e-07 $layer=POLY_cond $X=8.8 $Y=1.485
+ $X2=8.905 $Y2=1.485
r518 237 238 23.6063 $w=3.3e-07 $l=1.35e-07 $layer=POLY_cond $X=8.665 $Y=1.485
+ $X2=8.8 $Y2=1.485
r519 236 237 55.0813 $w=3.3e-07 $l=3.15e-07 $layer=POLY_cond $X=8.35 $Y=1.485
+ $X2=8.665 $Y2=1.485
r520 235 236 20.109 $w=3.3e-07 $l=1.15e-07 $layer=POLY_cond $X=8.235 $Y=1.485
+ $X2=8.35 $Y2=1.485
r521 233 235 43.7153 $w=3.3e-07 $l=2.5e-07 $layer=POLY_cond $X=7.985 $Y=1.485
+ $X2=8.235 $Y2=1.485
r522 233 234 145.28 $w=1.7e-07 $l=1.7e-07 $layer=licon1_POLY $count=1 $X=7.985
+ $Y=1.485 $X2=7.985 $Y2=1.485
r523 231 233 14.8632 $w=3.3e-07 $l=8.5e-08 $layer=POLY_cond $X=7.9 $Y=1.485
+ $X2=7.985 $Y2=1.485
r524 230 231 28.8521 $w=3.3e-07 $l=1.65e-07 $layer=POLY_cond $X=7.735 $Y=1.485
+ $X2=7.9 $Y2=1.485
r525 229 230 49.8355 $w=3.3e-07 $l=2.85e-07 $layer=POLY_cond $X=7.45 $Y=1.485
+ $X2=7.735 $Y2=1.485
r526 228 229 25.3549 $w=3.3e-07 $l=1.45e-07 $layer=POLY_cond $X=7.305 $Y=1.485
+ $X2=7.45 $Y2=1.485
r527 226 228 38.4695 $w=3.3e-07 $l=2.2e-07 $layer=POLY_cond $X=7.085 $Y=1.485
+ $X2=7.305 $Y2=1.485
r528 226 227 145.28 $w=1.7e-07 $l=1.7e-07 $layer=licon1_POLY $count=1 $X=7.085
+ $Y=1.485 $X2=7.085 $Y2=1.485
r529 224 226 14.8632 $w=3.3e-07 $l=8.5e-08 $layer=POLY_cond $X=7 $Y=1.485
+ $X2=7.085 $Y2=1.485
r530 223 224 21.8577 $w=3.3e-07 $l=1.25e-07 $layer=POLY_cond $X=6.875 $Y=1.485
+ $X2=7 $Y2=1.485
r531 222 223 56.8299 $w=3.3e-07 $l=3.25e-07 $layer=POLY_cond $X=6.55 $Y=1.485
+ $X2=6.875 $Y2=1.485
r532 221 222 18.3604 $w=3.3e-07 $l=1.05e-07 $layer=POLY_cond $X=6.445 $Y=1.485
+ $X2=6.55 $Y2=1.485
r533 219 221 41.0924 $w=3.3e-07 $l=2.35e-07 $layer=POLY_cond $X=6.21 $Y=1.485
+ $X2=6.445 $Y2=1.485
r534 219 220 145.28 $w=1.7e-07 $l=1.7e-07 $layer=licon1_POLY $count=1 $X=6.21
+ $Y=1.485 $X2=6.21 $Y2=1.485
r535 217 219 27.9778 $w=3.3e-07 $l=1.6e-07 $layer=POLY_cond $X=6.05 $Y=1.485
+ $X2=6.21 $Y2=1.485
r536 216 217 6.12014 $w=3.3e-07 $l=3.5e-08 $layer=POLY_cond $X=6.015 $Y=1.485
+ $X2=6.05 $Y2=1.485
r537 215 216 72.5674 $w=3.3e-07 $l=4.15e-07 $layer=POLY_cond $X=5.6 $Y=1.485
+ $X2=6.015 $Y2=1.485
r538 213 215 2.62292 $w=3.3e-07 $l=1.5e-08 $layer=POLY_cond $X=5.585 $Y=1.485
+ $X2=5.6 $Y2=1.485
r539 211 262 5.25164 $w=3.93e-07 $l=1.8e-07 $layer=LI1_cond $X=11.692 $Y=1.665
+ $X2=11.692 $Y2=1.485
r540 210 211 9.3 $w=1.7e-07 $l=1.7e-07 $layer=mcon $count=1 $X=11.685 $Y=1.665
+ $X2=11.685 $Y2=1.665
r541 208 255 5.53173 $w=3.73e-07 $l=1.8e-07 $layer=LI1_cond $X=10.752 $Y=1.665
+ $X2=10.752 $Y2=1.485
r542 207 210 0.593484 $w=2.3e-07 $l=9.25e-07 $layer=MET1_cond $X=10.76 $Y=1.665
+ $X2=11.685 $Y2=1.665
r543 207 208 9.3 $w=1.7e-07 $l=1.7e-07 $layer=mcon $count=1 $X=10.76 $Y=1.665
+ $X2=10.76 $Y2=1.665
r544 205 248 6.38276 $w=3.23e-07 $l=1.8e-07 $layer=LI1_cond $X=9.812 $Y=1.665
+ $X2=9.812 $Y2=1.485
r545 204 207 0.606316 $w=2.3e-07 $l=9.45e-07 $layer=MET1_cond $X=9.815 $Y=1.665
+ $X2=10.76 $Y2=1.665
r546 204 205 9.3 $w=1.7e-07 $l=1.7e-07 $layer=mcon $count=1 $X=9.815 $Y=1.665
+ $X2=9.815 $Y2=1.665
r547 202 241 7.03186 $w=2.93e-07 $l=1.8e-07 $layer=LI1_cond $X=8.897 $Y=1.665
+ $X2=8.897 $Y2=1.485
r548 201 204 0.58386 $w=2.3e-07 $l=9.1e-07 $layer=MET1_cond $X=8.905 $Y=1.665
+ $X2=9.815 $Y2=1.665
r549 201 202 9.3 $w=1.7e-07 $l=1.7e-07 $layer=mcon $count=1 $X=8.905 $Y=1.665
+ $X2=8.905 $Y2=1.665
r550 199 234 7.82791 $w=2.63e-07 $l=1.8e-07 $layer=LI1_cond $X=7.982 $Y=1.665
+ $X2=7.982 $Y2=1.485
r551 198 201 0.590276 $w=2.3e-07 $l=9.2e-07 $layer=MET1_cond $X=7.985 $Y=1.665
+ $X2=8.905 $Y2=1.665
r552 198 199 9.3 $w=1.7e-07 $l=1.7e-07 $layer=mcon $count=1 $X=7.985 $Y=1.665
+ $X2=7.985 $Y2=1.665
r553 196 227 7.82791 $w=2.63e-07 $l=1.8e-07 $layer=LI1_cond $X=7.082 $Y=1.665
+ $X2=7.082 $Y2=1.485
r554 195 198 0.577444 $w=2.3e-07 $l=9e-07 $layer=MET1_cond $X=7.085 $Y=1.665
+ $X2=7.985 $Y2=1.665
r555 195 196 9.3 $w=1.7e-07 $l=1.7e-07 $layer=mcon $count=1 $X=7.085 $Y=1.665
+ $X2=7.085 $Y2=1.665
r556 193 220 6.6916 $w=3.08e-07 $l=1.8e-07 $layer=LI1_cond $X=6.21 $Y=1.665
+ $X2=6.21 $Y2=1.485
r557 192 195 0.561404 $w=2.3e-07 $l=8.75e-07 $layer=MET1_cond $X=6.21 $Y=1.665
+ $X2=7.085 $Y2=1.665
r558 192 193 9.3 $w=1.7e-07 $l=1.7e-07 $layer=mcon $count=1 $X=6.21 $Y=1.665
+ $X2=6.21 $Y2=1.665
r559 189 297 6.22979 $w=4.7e-07 $l=2.4e-07 $layer=LI1_cond $X=5.077 $Y=1.665
+ $X2=5.077 $Y2=1.905
r560 188 192 0.606316 $w=2.3e-07 $l=9.45e-07 $layer=MET1_cond $X=5.265 $Y=1.665
+ $X2=6.21 $Y2=1.665
r561 188 189 9.3 $w=1.7e-07 $l=1.7e-07 $layer=mcon $count=1 $X=5.265 $Y=1.665
+ $X2=5.265 $Y2=1.665
r562 180 189 11.3723 $w=4.7e-07 $l=3.92702e-07 $layer=LI1_cond $X=4.975 $Y=1.32
+ $X2=5.077 $Y2=1.665
r563 179 186 3.64284 $w=2.55e-07 $l=1.00995e-07 $layer=LI1_cond $X=4.975 $Y=1.15
+ $X2=4.94 $Y2=1.065
r564 179 180 7.5352 $w=2.58e-07 $l=1.7e-07 $layer=LI1_cond $X=4.975 $Y=1.15
+ $X2=4.975 $Y2=1.32
r565 175 186 3.64284 $w=2.55e-07 $l=1.03078e-07 $layer=LI1_cond $X=4.9 $Y=0.98
+ $X2=4.94 $Y2=1.065
r566 175 177 21.4354 $w=2.48e-07 $l=4.65e-07 $layer=LI1_cond $X=4.9 $Y=0.98
+ $X2=4.9 $Y2=0.515
r567 171 299 1.22671 $w=4.7e-07 $l=1.64481e-07 $layer=LI1_cond $X=4.915 $Y=1.99
+ $X2=5.077 $Y2=1.985
r568 171 173 28.8111 $w=3.28e-07 $l=8.25e-07 $layer=LI1_cond $X=4.915 $Y=1.99
+ $X2=4.915 $Y2=2.815
r569 170 184 8.61065 $w=1.7e-07 $l=1.65e-07 $layer=LI1_cond $X=4.17 $Y=1.905
+ $X2=4.005 $Y2=1.905
r570 169 297 6.76998 $w=1.7e-07 $l=3.27e-07 $layer=LI1_cond $X=4.75 $Y=1.905
+ $X2=5.077 $Y2=1.905
r571 169 170 37.8396 $w=1.68e-07 $l=5.8e-07 $layer=LI1_cond $X=4.75 $Y=1.905
+ $X2=4.17 $Y2=1.905
r572 168 185 7.02821 $w=1.7e-07 $l=1.25e-07 $layer=LI1_cond $X=4.095 $Y=1.065
+ $X2=3.97 $Y2=1.065
r573 167 186 2.83584 $w=1.7e-07 $l=1.65e-07 $layer=LI1_cond $X=4.775 $Y=1.065
+ $X2=4.94 $Y2=1.065
r574 167 168 44.3636 $w=1.68e-07 $l=6.8e-07 $layer=LI1_cond $X=4.775 $Y=1.065
+ $X2=4.095 $Y2=1.065
r575 163 185 0.00168595 $w=2.5e-07 $l=8.5e-08 $layer=LI1_cond $X=3.97 $Y=0.98
+ $X2=3.97 $Y2=1.065
r576 163 165 21.4354 $w=2.48e-07 $l=4.65e-07 $layer=LI1_cond $X=3.97 $Y=0.98
+ $X2=3.97 $Y2=0.515
r577 159 184 0.89609 $w=3.3e-07 $l=8.5e-08 $layer=LI1_cond $X=4.005 $Y=1.99
+ $X2=4.005 $Y2=1.905
r578 159 161 28.8111 $w=3.28e-07 $l=8.25e-07 $layer=LI1_cond $X=4.005 $Y=1.99
+ $X2=4.005 $Y2=2.815
r579 158 182 5.12568 $w=1.7e-07 $l=1.65e-07 $layer=LI1_cond $X=3.27 $Y=1.905
+ $X2=3.105 $Y2=1.905
r580 157 184 8.61065 $w=1.7e-07 $l=1.65e-07 $layer=LI1_cond $X=3.84 $Y=1.905
+ $X2=4.005 $Y2=1.905
r581 157 158 37.1872 $w=1.68e-07 $l=5.7e-07 $layer=LI1_cond $X=3.84 $Y=1.905
+ $X2=3.27 $Y2=1.905
r582 155 185 7.02821 $w=1.7e-07 $l=1.25e-07 $layer=LI1_cond $X=3.845 $Y=1.065
+ $X2=3.97 $Y2=1.065
r583 155 156 44.3636 $w=1.68e-07 $l=6.8e-07 $layer=LI1_cond $X=3.845 $Y=1.065
+ $X2=3.165 $Y2=1.065
r584 151 182 2.6405 $w=3.3e-07 $l=8.5e-08 $layer=LI1_cond $X=3.105 $Y=1.99
+ $X2=3.105 $Y2=1.905
r585 151 153 28.8111 $w=3.28e-07 $l=8.25e-07 $layer=LI1_cond $X=3.105 $Y=1.99
+ $X2=3.105 $Y2=2.815
r586 147 156 7.14316 $w=1.7e-07 $l=1.62019e-07 $layer=LI1_cond $X=3.04 $Y=0.98
+ $X2=3.165 $Y2=1.065
r587 147 149 21.4354 $w=2.48e-07 $l=4.65e-07 $layer=LI1_cond $X=3.04 $Y=0.98
+ $X2=3.04 $Y2=0.515
r588 143 266 16.9318 $w=1.8e-07 $l=1.65e-07 $layer=POLY_cond $X=12.45 $Y=1.65
+ $X2=12.45 $Y2=1.485
r589 143 145 291.532 $w=1.8e-07 $l=7.5e-07 $layer=POLY_cond $X=12.45 $Y=1.65
+ $X2=12.45 $Y2=2.4
r590 139 265 21.2229 $w=1.5e-07 $l=1.65e-07 $layer=POLY_cond $X=12.395 $Y=1.32
+ $X2=12.395 $Y2=1.485
r591 139 141 297.404 $w=1.5e-07 $l=5.8e-07 $layer=POLY_cond $X=12.395 $Y=1.32
+ $X2=12.395 $Y2=0.74
r592 135 264 21.2229 $w=1.5e-07 $l=1.65e-07 $layer=POLY_cond $X=11.965 $Y=1.32
+ $X2=11.965 $Y2=1.485
r593 135 137 297.404 $w=1.5e-07 $l=5.8e-07 $layer=POLY_cond $X=11.965 $Y=1.32
+ $X2=11.965 $Y2=0.74
r594 131 263 16.9318 $w=1.8e-07 $l=1.65e-07 $layer=POLY_cond $X=11.95 $Y=1.65
+ $X2=11.95 $Y2=1.485
r595 131 133 291.532 $w=1.8e-07 $l=7.5e-07 $layer=POLY_cond $X=11.95 $Y=1.65
+ $X2=11.95 $Y2=2.4
r596 127 259 16.9318 $w=1.8e-07 $l=1.65e-07 $layer=POLY_cond $X=11.5 $Y=1.65
+ $X2=11.5 $Y2=1.485
r597 127 129 291.532 $w=1.8e-07 $l=7.5e-07 $layer=POLY_cond $X=11.5 $Y=1.65
+ $X2=11.5 $Y2=2.4
r598 123 258 21.2229 $w=1.5e-07 $l=1.65e-07 $layer=POLY_cond $X=11.455 $Y=1.32
+ $X2=11.455 $Y2=1.485
r599 123 125 297.404 $w=1.5e-07 $l=5.8e-07 $layer=POLY_cond $X=11.455 $Y=1.32
+ $X2=11.455 $Y2=0.74
r600 119 257 16.9318 $w=1.8e-07 $l=1.65e-07 $layer=POLY_cond $X=11.05 $Y=1.65
+ $X2=11.05 $Y2=1.485
r601 119 121 291.532 $w=1.8e-07 $l=7.5e-07 $layer=POLY_cond $X=11.05 $Y=1.65
+ $X2=11.05 $Y2=2.4
r602 115 256 21.2229 $w=1.5e-07 $l=1.65e-07 $layer=POLY_cond $X=11.025 $Y=1.32
+ $X2=11.025 $Y2=1.485
r603 115 117 297.404 $w=1.5e-07 $l=5.8e-07 $layer=POLY_cond $X=11.025 $Y=1.32
+ $X2=11.025 $Y2=0.74
r604 111 252 16.9318 $w=1.8e-07 $l=1.65e-07 $layer=POLY_cond $X=10.6 $Y=1.65
+ $X2=10.6 $Y2=1.485
r605 111 113 291.532 $w=1.8e-07 $l=7.5e-07 $layer=POLY_cond $X=10.6 $Y=1.65
+ $X2=10.6 $Y2=2.4
r606 107 251 21.2229 $w=1.5e-07 $l=1.65e-07 $layer=POLY_cond $X=10.525 $Y=1.32
+ $X2=10.525 $Y2=1.485
r607 107 109 297.404 $w=1.5e-07 $l=5.8e-07 $layer=POLY_cond $X=10.525 $Y=1.32
+ $X2=10.525 $Y2=0.74
r608 103 250 16.9318 $w=1.8e-07 $l=1.65e-07 $layer=POLY_cond $X=10.15 $Y=1.65
+ $X2=10.15 $Y2=1.485
r609 103 105 291.532 $w=1.8e-07 $l=7.5e-07 $layer=POLY_cond $X=10.15 $Y=1.65
+ $X2=10.15 $Y2=2.4
r610 99 249 21.2229 $w=1.5e-07 $l=1.65e-07 $layer=POLY_cond $X=10.095 $Y=1.32
+ $X2=10.095 $Y2=1.485
r611 99 101 297.404 $w=1.5e-07 $l=5.8e-07 $layer=POLY_cond $X=10.095 $Y=1.32
+ $X2=10.095 $Y2=0.74
r612 95 245 16.9318 $w=1.8e-07 $l=1.65e-07 $layer=POLY_cond $X=9.7 $Y=1.65
+ $X2=9.7 $Y2=1.485
r613 95 97 291.532 $w=1.8e-07 $l=7.5e-07 $layer=POLY_cond $X=9.7 $Y=1.65 $X2=9.7
+ $Y2=2.4
r614 91 244 21.2229 $w=1.5e-07 $l=1.65e-07 $layer=POLY_cond $X=9.595 $Y=1.32
+ $X2=9.595 $Y2=1.485
r615 91 93 297.404 $w=1.5e-07 $l=5.8e-07 $layer=POLY_cond $X=9.595 $Y=1.32
+ $X2=9.595 $Y2=0.74
r616 87 243 16.9318 $w=1.8e-07 $l=1.65e-07 $layer=POLY_cond $X=9.25 $Y=1.65
+ $X2=9.25 $Y2=1.485
r617 87 89 291.532 $w=1.8e-07 $l=7.5e-07 $layer=POLY_cond $X=9.25 $Y=1.65
+ $X2=9.25 $Y2=2.4
r618 83 242 21.2229 $w=1.5e-07 $l=1.65e-07 $layer=POLY_cond $X=9.165 $Y=1.32
+ $X2=9.165 $Y2=1.485
r619 83 85 297.404 $w=1.5e-07 $l=5.8e-07 $layer=POLY_cond $X=9.165 $Y=1.32
+ $X2=9.165 $Y2=0.74
r620 79 238 16.9318 $w=1.8e-07 $l=1.65e-07 $layer=POLY_cond $X=8.8 $Y=1.65
+ $X2=8.8 $Y2=1.485
r621 79 81 291.532 $w=1.8e-07 $l=7.5e-07 $layer=POLY_cond $X=8.8 $Y=1.65 $X2=8.8
+ $Y2=2.4
r622 75 237 21.2229 $w=1.5e-07 $l=1.65e-07 $layer=POLY_cond $X=8.665 $Y=1.32
+ $X2=8.665 $Y2=1.485
r623 75 77 297.404 $w=1.5e-07 $l=5.8e-07 $layer=POLY_cond $X=8.665 $Y=1.32
+ $X2=8.665 $Y2=0.74
r624 71 236 16.9318 $w=1.8e-07 $l=1.65e-07 $layer=POLY_cond $X=8.35 $Y=1.65
+ $X2=8.35 $Y2=1.485
r625 71 73 291.532 $w=1.8e-07 $l=7.5e-07 $layer=POLY_cond $X=8.35 $Y=1.65
+ $X2=8.35 $Y2=2.4
r626 67 235 21.2229 $w=1.5e-07 $l=1.65e-07 $layer=POLY_cond $X=8.235 $Y=1.32
+ $X2=8.235 $Y2=1.485
r627 67 69 297.404 $w=1.5e-07 $l=5.8e-07 $layer=POLY_cond $X=8.235 $Y=1.32
+ $X2=8.235 $Y2=0.74
r628 63 231 16.9318 $w=1.8e-07 $l=1.65e-07 $layer=POLY_cond $X=7.9 $Y=1.65
+ $X2=7.9 $Y2=1.485
r629 63 65 291.532 $w=1.8e-07 $l=7.5e-07 $layer=POLY_cond $X=7.9 $Y=1.65 $X2=7.9
+ $Y2=2.4
r630 59 230 21.2229 $w=1.5e-07 $l=1.65e-07 $layer=POLY_cond $X=7.735 $Y=1.32
+ $X2=7.735 $Y2=1.485
r631 59 61 297.404 $w=1.5e-07 $l=5.8e-07 $layer=POLY_cond $X=7.735 $Y=1.32
+ $X2=7.735 $Y2=0.74
r632 55 229 16.9318 $w=1.8e-07 $l=1.65e-07 $layer=POLY_cond $X=7.45 $Y=1.65
+ $X2=7.45 $Y2=1.485
r633 55 57 291.532 $w=1.8e-07 $l=7.5e-07 $layer=POLY_cond $X=7.45 $Y=1.65
+ $X2=7.45 $Y2=2.4
r634 51 228 21.2229 $w=1.5e-07 $l=1.65e-07 $layer=POLY_cond $X=7.305 $Y=1.32
+ $X2=7.305 $Y2=1.485
r635 51 53 297.404 $w=1.5e-07 $l=5.8e-07 $layer=POLY_cond $X=7.305 $Y=1.32
+ $X2=7.305 $Y2=0.74
r636 47 224 16.9318 $w=1.8e-07 $l=1.65e-07 $layer=POLY_cond $X=7 $Y=1.65 $X2=7
+ $Y2=1.485
r637 47 49 291.532 $w=1.8e-07 $l=7.5e-07 $layer=POLY_cond $X=7 $Y=1.65 $X2=7
+ $Y2=2.4
r638 43 223 21.2229 $w=1.5e-07 $l=1.65e-07 $layer=POLY_cond $X=6.875 $Y=1.32
+ $X2=6.875 $Y2=1.485
r639 43 45 297.404 $w=1.5e-07 $l=5.8e-07 $layer=POLY_cond $X=6.875 $Y=1.32
+ $X2=6.875 $Y2=0.74
r640 39 222 16.9318 $w=1.8e-07 $l=1.65e-07 $layer=POLY_cond $X=6.55 $Y=1.65
+ $X2=6.55 $Y2=1.485
r641 39 41 291.532 $w=1.8e-07 $l=7.5e-07 $layer=POLY_cond $X=6.55 $Y=1.65
+ $X2=6.55 $Y2=2.4
r642 35 221 21.2229 $w=1.5e-07 $l=1.65e-07 $layer=POLY_cond $X=6.445 $Y=1.32
+ $X2=6.445 $Y2=1.485
r643 35 37 297.404 $w=1.5e-07 $l=5.8e-07 $layer=POLY_cond $X=6.445 $Y=1.32
+ $X2=6.445 $Y2=0.74
r644 31 217 16.9318 $w=1.8e-07 $l=1.65e-07 $layer=POLY_cond $X=6.05 $Y=1.65
+ $X2=6.05 $Y2=1.485
r645 31 33 291.532 $w=1.8e-07 $l=7.5e-07 $layer=POLY_cond $X=6.05 $Y=1.65
+ $X2=6.05 $Y2=2.4
r646 27 216 21.2229 $w=1.5e-07 $l=1.65e-07 $layer=POLY_cond $X=6.015 $Y=1.32
+ $X2=6.015 $Y2=1.485
r647 27 29 297.404 $w=1.5e-07 $l=5.8e-07 $layer=POLY_cond $X=6.015 $Y=1.32
+ $X2=6.015 $Y2=0.74
r648 23 215 16.9318 $w=1.8e-07 $l=1.65e-07 $layer=POLY_cond $X=5.6 $Y=1.65
+ $X2=5.6 $Y2=1.485
r649 23 25 291.532 $w=1.8e-07 $l=7.5e-07 $layer=POLY_cond $X=5.6 $Y=1.65 $X2=5.6
+ $Y2=2.4
r650 19 213 21.2229 $w=1.5e-07 $l=1.65e-07 $layer=POLY_cond $X=5.585 $Y=1.32
+ $X2=5.585 $Y2=1.485
r651 19 21 297.404 $w=1.5e-07 $l=5.8e-07 $layer=POLY_cond $X=5.585 $Y=1.32
+ $X2=5.585 $Y2=0.74
r652 6 299 400 $w=1.7e-07 $l=2.01494e-07 $layer=licon1_PDIFF $count=1 $X=4.78
+ $Y=1.84 $X2=4.915 $Y2=1.985
r653 6 173 400 $w=1.7e-07 $l=1.04031e-06 $layer=licon1_PDIFF $count=1 $X=4.78
+ $Y=1.84 $X2=4.915 $Y2=2.815
r654 5 184 400 $w=1.7e-07 $l=2.01494e-07 $layer=licon1_PDIFF $count=1 $X=3.87
+ $Y=1.84 $X2=4.005 $Y2=1.985
r655 5 161 400 $w=1.7e-07 $l=1.04031e-06 $layer=licon1_PDIFF $count=1 $X=3.87
+ $Y=1.84 $X2=4.005 $Y2=2.815
r656 4 182 400 $w=1.7e-07 $l=2.01494e-07 $layer=licon1_PDIFF $count=1 $X=2.97
+ $Y=1.84 $X2=3.105 $Y2=1.985
r657 4 153 400 $w=1.7e-07 $l=1.04031e-06 $layer=licon1_PDIFF $count=1 $X=2.97
+ $Y=1.84 $X2=3.105 $Y2=2.815
r658 3 177 91 $w=1.7e-07 $l=2.03286e-07 $layer=licon1_NDIFF $count=2 $X=4.8
+ $Y=0.37 $X2=4.94 $Y2=0.515
r659 2 165 91 $w=1.7e-07 $l=2.03286e-07 $layer=licon1_NDIFF $count=2 $X=3.87
+ $Y=0.37 $X2=4.01 $Y2=0.515
r660 1 149 91 $w=1.7e-07 $l=2.03286e-07 $layer=licon1_NDIFF $count=2 $X=2.94
+ $Y=0.37 $X2=3.08 $Y2=0.515
.ends

.subckt PM_SKY130_FD_SC_MS__BUFBUF_16%VPWR 1 2 3 4 5 6 7 8 9 10 11 12 13 14 47
+ 51 55 61 65 69 75 79 83 89 93 97 101 105 111 115 117 122 123 125 126 128 129
+ 131 132 134 135 137 138 140 141 142 143 144 150 176 181 187 190 193 196 199
+ 203
r232 202 203 9.3 $w=1.7e-07 $l=1.7e-07 $layer=mcon $count=1 $X=12.72 $Y=3.33
+ $X2=12.72 $Y2=3.33
r233 199 200 9.3 $w=1.7e-07 $l=1.7e-07 $layer=mcon $count=1 $X=11.76 $Y=3.33
+ $X2=11.76 $Y2=3.33
r234 196 197 4.65 $w=1.7e-07 $l=3.4e-07 $layer=mcon $count=2 $X=10.8 $Y=3.33
+ $X2=10.8 $Y2=3.33
r235 194 197 0.267585 $w=4.9e-07 $l=9.6e-07 $layer=MET1_cond $X=9.84 $Y=3.33
+ $X2=10.8 $Y2=3.33
r236 193 194 4.65 $w=1.7e-07 $l=3.4e-07 $layer=mcon $count=2 $X=9.84 $Y=3.33
+ $X2=9.84 $Y2=3.33
r237 190 191 9.3 $w=1.7e-07 $l=1.7e-07 $layer=mcon $count=1 $X=2.64 $Y=3.33
+ $X2=2.64 $Y2=3.33