* File: sky130_fd_sc_ms__edfxbp_1.pex.spice
* Created: Wed Sep  2 12:07:59 2020
* Program "Calibre xRC"
* Version "v2018.4_34.26"
* Nominal Temperature: 27C
* Circuit Temperature: 27C
* 
.subckt PM_SKY130_FD_SC_MS__EDFXBP_1%D 2 5 9 11 12 16 17 20
c40 20 0 4.29314e-20 $X=0.59 $Y=1.825
r41 20 22 40.7132 $w=3.4e-07 $l=1.65e-07 $layer=POLY_cond $X=0.585 $Y=1.825
+ $X2=0.585 $Y2=1.99
r42 20 21 96.8533 $w=1.7e-07 $l=2.55e-07 $layer=licon1_POLY $count=1 $X=0.59
+ $Y=1.825 $X2=0.59 $Y2=1.825
r43 16 18 46.3065 $w=3.4e-07 $l=1.65e-07 $layer=POLY_cond $X=0.585 $Y=1.145
+ $X2=0.585 $Y2=0.98
r44 16 17 96.8533 $w=1.7e-07 $l=2.55e-07 $layer=licon1_POLY $count=1 $X=0.59
+ $Y=1.145 $X2=0.59 $Y2=1.145
r45 12 21 4.49734 $w=4.08e-07 $l=1.6e-07 $layer=LI1_cond $X=0.63 $Y=1.665
+ $X2=0.63 $Y2=1.825
r46 11 12 10.4001 $w=4.08e-07 $l=3.7e-07 $layer=LI1_cond $X=0.63 $Y=1.295
+ $X2=0.63 $Y2=1.665
r47 11 17 4.21625 $w=4.08e-07 $l=1.5e-07 $layer=LI1_cond $X=0.63 $Y=1.295
+ $X2=0.63 $Y2=1.145
r48 9 18 205.106 $w=1.5e-07 $l=4e-07 $layer=POLY_cond $X=0.65 $Y=0.58 $X2=0.65
+ $Y2=0.98
r49 5 22 295.419 $w=1.8e-07 $l=7.6e-07 $layer=POLY_cond $X=0.505 $Y=2.75
+ $X2=0.505 $Y2=1.99
r50 2 20 0.848592 $w=3.4e-07 $l=5e-09 $layer=POLY_cond $X=0.585 $Y=1.82
+ $X2=0.585 $Y2=1.825
r51 1 16 0.848592 $w=3.4e-07 $l=5e-09 $layer=POLY_cond $X=0.585 $Y=1.15
+ $X2=0.585 $Y2=1.145
r52 1 2 113.711 $w=3.4e-07 $l=6.7e-07 $layer=POLY_cond $X=0.585 $Y=1.15
+ $X2=0.585 $Y2=1.82
.ends

.subckt PM_SKY130_FD_SC_MS__EDFXBP_1%A_161_446# 1 2 7 9 13 23 24 25 26 27 28 31
+ 35 37 41 42 44
c109 41 0 1.52853e-19 $X=2.5 $Y=1.145
c110 28 0 4.29314e-20 $X=1.335 $Y=2.035
r111 41 42 72.64 $w=1.7e-07 $l=3.4e-07 $layer=licon1_POLY $count=2 $X=2.5
+ $Y=1.145 $X2=2.5 $Y2=1.145
r112 39 41 28.1126 $w=3.28e-07 $l=8.05e-07 $layer=LI1_cond $X=2.5 $Y=1.95
+ $X2=2.5 $Y2=1.145
r113 38 44 5.16603 $w=1.7e-07 $l=8.5e-08 $layer=LI1_cond $X=1.885 $Y=2.035
+ $X2=1.8 $Y2=2.035
r114 37 39 7.76618 $w=1.7e-07 $l=2.03101e-07 $layer=LI1_cond $X=2.335 $Y=2.035
+ $X2=2.5 $Y2=1.95
r115 37 38 29.3583 $w=1.68e-07 $l=4.5e-07 $layer=LI1_cond $X=2.335 $Y=2.035
+ $X2=1.885 $Y2=2.035
r116 33 44 1.34256 $w=1.7e-07 $l=8.5e-08 $layer=LI1_cond $X=1.8 $Y=2.12 $X2=1.8
+ $Y2=2.035
r117 33 35 25.1176 $w=1.68e-07 $l=3.85e-07 $layer=LI1_cond $X=1.8 $Y=2.12
+ $X2=1.8 $Y2=2.505
r118 29 31 15.311 $w=3.48e-07 $l=4.65e-07 $layer=LI1_cond $X=1.825 $Y=1.11
+ $X2=1.825 $Y2=0.645
r119 27 44 5.16603 $w=1.7e-07 $l=8.5e-08 $layer=LI1_cond $X=1.715 $Y=2.035
+ $X2=1.8 $Y2=2.035
r120 27 28 24.7914 $w=1.68e-07 $l=3.8e-07 $layer=LI1_cond $X=1.715 $Y=2.035
+ $X2=1.335 $Y2=2.035
r121 25 29 7.93686 $w=1.7e-07 $l=2.13307e-07 $layer=LI1_cond $X=1.65 $Y=1.195
+ $X2=1.825 $Y2=1.11
r122 25 26 20.5508 $w=1.68e-07 $l=3.15e-07 $layer=LI1_cond $X=1.65 $Y=1.195
+ $X2=1.335 $Y2=1.195
r123 23 24 72.64 $w=1.7e-07 $l=3.4e-07 $layer=licon1_POLY $count=2 $X=1.17
+ $Y=1.615 $X2=1.17 $Y2=1.615
r124 21 28 7.76618 $w=1.7e-07 $l=2.03101e-07 $layer=LI1_cond $X=1.17 $Y=1.95
+ $X2=1.335 $Y2=2.035
r125 21 23 11.699 $w=3.28e-07 $l=3.35e-07 $layer=LI1_cond $X=1.17 $Y=1.95
+ $X2=1.17 $Y2=1.615
r126 20 26 7.76618 $w=1.7e-07 $l=2.03101e-07 $layer=LI1_cond $X=1.17 $Y=1.28
+ $X2=1.335 $Y2=1.195
r127 20 23 11.699 $w=3.28e-07 $l=3.35e-07 $layer=LI1_cond $X=1.17 $Y=1.28
+ $X2=1.17 $Y2=1.615
r128 19 42 41.8716 $w=3.3e-07 $l=1.65e-07 $layer=POLY_cond $X=2.5 $Y=0.98
+ $X2=2.5 $Y2=1.145
r129 17 24 59.4528 $w=3.3e-07 $l=3.4e-07 $layer=POLY_cond $X=1.17 $Y=1.955
+ $X2=1.17 $Y2=1.615
r130 13 19 205.106 $w=1.5e-07 $l=4e-07 $layer=POLY_cond $X=2.56 $Y=0.58 $X2=2.56
+ $Y2=0.98
r131 7 17 57.1336 $w=2.32e-07 $l=5.45436e-07 $layer=POLY_cond $X=0.895 $Y=2.38
+ $X2=1.17 $Y2=1.955
r132 7 9 143.823 $w=1.8e-07 $l=3.7e-07 $layer=POLY_cond $X=0.895 $Y=2.38
+ $X2=0.895 $Y2=2.75
r133 2 35 600 $w=1.7e-07 $l=2.67862e-07 $layer=licon1_PDIFF $count=1 $X=1.655
+ $Y=2.3 $X2=1.8 $Y2=2.505
r134 1 31 182 $w=1.7e-07 $l=3.43875e-07 $layer=licon1_NDIFF $count=1 $X=1.67
+ $Y=0.37 $X2=1.825 $Y2=0.645
.ends

.subckt PM_SKY130_FD_SC_MS__EDFXBP_1%DE 1 3 4 5 8 12 14 16 17 20 21 23 25 30 33
+ 35
c87 23 0 9.594e-20 $X=2.705 $Y=2.73
c88 17 0 2.45649e-19 $X=2.44 $Y=1.965
c89 8 0 1.52853e-19 $X=1.975 $Y=0.94
r90 36 37 32.9693 $w=5.4e-07 $l=7.5e-08 $layer=POLY_cond $X=1.845 $Y=1.965
+ $X2=1.845 $Y2=2.04
r91 33 36 34.6778 $w=5.4e-07 $l=3.5e-07 $layer=POLY_cond $X=1.845 $Y=1.615
+ $X2=1.845 $Y2=1.965
r92 33 35 47.7034 $w=5.4e-07 $l=1.65e-07 $layer=POLY_cond $X=1.845 $Y=1.615
+ $X2=1.845 $Y2=1.45
r93 30 33 145.28 $w=1.7e-07 $l=1.7e-07 $layer=licon1_POLY $count=1 $X=1.74
+ $Y=1.615 $X2=1.74 $Y2=1.615
r94 21 26 97.4255 $w=1.5e-07 $l=1.9e-07 $layer=POLY_cond $X=2.705 $Y=2.305
+ $X2=2.515 $Y2=2.305
r95 21 23 136.048 $w=1.8e-07 $l=3.5e-07 $layer=POLY_cond $X=2.705 $Y=2.38
+ $X2=2.705 $Y2=2.73
r96 20 26 2.83073 $w=1.5e-07 $l=7.5e-08 $layer=POLY_cond $X=2.515 $Y=2.23
+ $X2=2.515 $Y2=2.305
r97 19 20 97.4255 $w=1.5e-07 $l=1.9e-07 $layer=POLY_cond $X=2.515 $Y=2.04
+ $X2=2.515 $Y2=2.23
r98 18 36 33.3633 $w=1.5e-07 $l=2.7e-07 $layer=POLY_cond $X=2.115 $Y=1.965
+ $X2=1.845 $Y2=1.965
r99 17 19 26.9307 $w=1.5e-07 $l=1.06066e-07 $layer=POLY_cond $X=2.44 $Y=1.965
+ $X2=2.515 $Y2=2.04
r100 17 18 166.649 $w=1.5e-07 $l=3.25e-07 $layer=POLY_cond $X=2.44 $Y=1.965
+ $X2=2.115 $Y2=1.965
r101 14 16 91.58 $w=1.5e-07 $l=2.85e-07 $layer=POLY_cond $X=2.05 $Y=0.865
+ $X2=2.05 $Y2=0.58
r102 12 37 225.452 $w=1.8e-07 $l=5.8e-07 $layer=POLY_cond $X=2.025 $Y=2.62
+ $X2=2.025 $Y2=2.04
r103 9 25 20.4101 $w=1.5e-07 $l=7.5e-08 $layer=POLY_cond $X=1.725 $Y=0.94
+ $X2=1.65 $Y2=0.94
r104 8 14 26.9307 $w=1.5e-07 $l=1.06066e-07 $layer=POLY_cond $X=1.975 $Y=0.94
+ $X2=2.05 $Y2=0.865
r105 8 9 128.191 $w=1.5e-07 $l=2.5e-07 $layer=POLY_cond $X=1.975 $Y=0.94
+ $X2=1.725 $Y2=0.94
r106 6 25 5.30422 $w=1.5e-07 $l=7.5e-08 $layer=POLY_cond $X=1.65 $Y=1.015
+ $X2=1.65 $Y2=0.94
r107 6 35 223.053 $w=1.5e-07 $l=4.35e-07 $layer=POLY_cond $X=1.65 $Y=1.015
+ $X2=1.65 $Y2=1.45
r108 4 25 20.4101 $w=1.5e-07 $l=7.5e-08 $layer=POLY_cond $X=1.575 $Y=0.94
+ $X2=1.65 $Y2=0.94
r109 4 5 235.872 $w=1.5e-07 $l=4.6e-07 $layer=POLY_cond $X=1.575 $Y=0.94
+ $X2=1.115 $Y2=0.94
r110 1 5 26.9307 $w=1.5e-07 $l=1.06066e-07 $layer=POLY_cond $X=1.04 $Y=0.865
+ $X2=1.115 $Y2=0.94
r111 1 3 91.58 $w=1.5e-07 $l=2.85e-07 $layer=POLY_cond $X=1.04 $Y=0.865 $X2=1.04
+ $Y2=0.58
.ends

.subckt PM_SKY130_FD_SC_MS__EDFXBP_1%A_575_48# 1 2 9 13 17 21 25 29 33 40 42 43
+ 45 46 48 49 54 55 56 62 67 68 70 72 74 84
c230 72 0 1.37757e-19 $X=3.04 $Y=1.99
c231 68 0 1.15042e-19 $X=3.04 $Y=1.145
c232 55 0 2.25169e-19 $X=12.095 $Y=1.665
c233 49 0 7.45843e-20 $X=13.865 $Y=1.485
c234 33 0 7.24209e-20 $X=12.155 $Y=1.922
r235 73 74 2.31731 $w=3.12e-07 $l=1.5e-08 $layer=POLY_cond $X=11.435 $Y=1.89
+ $X2=11.45 $Y2=1.89
r236 70 72 40.6903 $w=3.3e-07 $l=1.65e-07 $layer=POLY_cond $X=3.04 $Y=1.825
+ $X2=3.04 $Y2=1.99
r237 67 70 118.906 $w=3.3e-07 $l=6.8e-07 $layer=POLY_cond $X=3.04 $Y=1.145
+ $X2=3.04 $Y2=1.825
r238 67 68 96.8533 $w=1.7e-07 $l=2.55e-07 $layer=licon1_POLY $count=1 $X=3.04
+ $Y=1.145 $X2=3.04 $Y2=1.145
r239 63 84 40.1609 $w=3.28e-07 $l=1.15e-06 $layer=LI1_cond $X=12.32 $Y=1.665
+ $X2=12.32 $Y2=0.515
r240 62 63 9.3 $w=1.7e-07 $l=1.7e-07 $layer=mcon $count=1 $X=12.24 $Y=1.665
+ $X2=12.24 $Y2=1.665
r241 59 68 18.1597 $w=3.28e-07 $l=5.2e-07 $layer=LI1_cond $X=3.04 $Y=1.665
+ $X2=3.04 $Y2=1.145
r242 59 70 96.8533 $w=1.7e-07 $l=2.55e-07 $layer=licon1_POLY $count=1 $X=3.04
+ $Y=1.825 $X2=3.04 $Y2=1.825
r243 58 59 9.3 $w=1.7e-07 $l=1.7e-07 $layer=mcon $count=1 $X=3.12 $Y=1.665
+ $X2=3.12 $Y2=1.665
r244 56 58 0.115467 $w=2.3e-07 $l=1.45e-07 $layer=MET1_cond $X=3.265 $Y=1.665
+ $X2=3.12 $Y2=1.665
r245 55 62 0.115467 $w=2.3e-07 $l=1.45e-07 $layer=MET1_cond $X=12.095 $Y=1.665
+ $X2=12.24 $Y2=1.665
r246 55 56 10.9282 $w=1.4e-07 $l=8.83e-06 $layer=MET1_cond $X=12.095 $Y=1.665
+ $X2=3.265 $Y2=1.665
r247 52 63 2.09535 $w=3.28e-07 $l=6e-08 $layer=LI1_cond $X=12.32 $Y=1.725
+ $X2=12.32 $Y2=1.665
r248 52 54 6.62588 $w=2.9e-07 $l=1.65e-07 $layer=LI1_cond $X=12.32 $Y=1.725
+ $X2=12.155 $Y2=1.725
r249 51 84 3.14303 $w=3.28e-07 $l=9e-08 $layer=LI1_cond $X=12.32 $Y=0.425
+ $X2=12.32 $Y2=0.515
r250 49 78 40.6903 $w=3.3e-07 $l=1.65e-07 $layer=POLY_cond $X=13.865 $Y=1.485
+ $X2=13.865 $Y2=1.65
r251 49 77 46.2115 $w=3.3e-07 $l=1.65e-07 $layer=POLY_cond $X=13.865 $Y=1.485
+ $X2=13.865 $Y2=1.32
r252 48 49 145.28 $w=1.7e-07 $l=1.7e-07 $layer=licon1_POLY $count=1 $X=13.865
+ $Y=1.485 $X2=13.865 $Y2=1.485
r253 46 48 15.0167 $w=3.28e-07 $l=4.3e-07 $layer=LI1_cond $X=13.435 $Y=1.485
+ $X2=13.865 $Y2=1.485
r254 45 46 7.76618 $w=3.3e-07 $l=2.03101e-07 $layer=LI1_cond $X=13.35 $Y=1.32
+ $X2=13.435 $Y2=1.485
r255 44 45 58.3904 $w=1.68e-07 $l=8.95e-07 $layer=LI1_cond $X=13.35 $Y=0.425
+ $X2=13.35 $Y2=1.32
r256 43 51 7.76618 $w=1.7e-07 $l=2.03101e-07 $layer=LI1_cond $X=12.485 $Y=0.34
+ $X2=12.32 $Y2=0.425
r257 42 44 6.81649 $w=1.7e-07 $l=1.20208e-07 $layer=LI1_cond $X=13.265 $Y=0.34
+ $X2=13.35 $Y2=0.425
r258 42 43 50.8877 $w=1.68e-07 $l=7.8e-07 $layer=LI1_cond $X=13.265 $Y=0.34
+ $X2=12.485 $Y2=0.34
r259 38 54 6.62588 $w=2.9e-07 $l=5.85064e-07 $layer=LI1_cond $X=12.575 $Y=2.12
+ $X2=12.155 $Y2=1.725
r260 38 40 25.8147 $w=2.48e-07 $l=5.6e-07 $layer=LI1_cond $X=12.575 $Y=2.12
+ $X2=12.575 $Y2=2.68
r261 36 74 42.484 $w=3.12e-07 $l=2.75e-07 $layer=POLY_cond $X=11.725 $Y=1.89
+ $X2=11.45 $Y2=1.89
r262 35 36 145.28 $w=1.7e-07 $l=1.7e-07 $layer=licon1_POLY $count=1 $X=11.725
+ $Y=1.89 $X2=11.725 $Y2=1.89
r263 33 54 0.257366 $w=3.95e-07 $l=1.97e-07 $layer=LI1_cond $X=12.155 $Y=1.922
+ $X2=12.155 $Y2=1.725
r264 33 35 12.5456 $w=3.93e-07 $l=4.3e-07 $layer=LI1_cond $X=12.155 $Y=1.922
+ $X2=11.725 $Y2=1.922
r265 32 67 46.2115 $w=3.3e-07 $l=1.65e-07 $layer=POLY_cond $X=3.04 $Y=0.98
+ $X2=3.04 $Y2=1.145
r266 29 77 287.149 $w=1.5e-07 $l=5.6e-07 $layer=POLY_cond $X=13.905 $Y=0.76
+ $X2=13.905 $Y2=1.32
r267 25 78 291.532 $w=1.8e-07 $l=7.5e-07 $layer=POLY_cond $X=13.85 $Y=2.4
+ $X2=13.85 $Y2=1.65
r268 19 74 19.893 $w=1.5e-07 $l=1.65e-07 $layer=POLY_cond $X=11.45 $Y=1.725
+ $X2=11.45 $Y2=1.89
r269 19 21 474.309 $w=1.5e-07 $l=9.25e-07 $layer=POLY_cond $X=11.45 $Y=1.725
+ $X2=11.45 $Y2=0.8
r270 15 73 15.628 $w=1.8e-07 $l=1.65e-07 $layer=POLY_cond $X=11.435 $Y=2.055
+ $X2=11.435 $Y2=1.89
r271 15 17 143.823 $w=1.8e-07 $l=3.7e-07 $layer=POLY_cond $X=11.435 $Y=2.055
+ $X2=11.435 $Y2=2.425
r272 13 72 287.645 $w=1.8e-07 $l=7.4e-07 $layer=POLY_cond $X=3.095 $Y=2.73
+ $X2=3.095 $Y2=1.99
r273 9 32 205.106 $w=1.5e-07 $l=4e-07 $layer=POLY_cond $X=2.95 $Y=0.58 $X2=2.95
+ $Y2=0.98
r274 2 54 400 $w=1.7e-07 $l=2.01494e-07 $layer=licon1_PDIFF $count=1 $X=12.48
+ $Y=1.825 $X2=12.615 $Y2=1.97
r275 2 40 400 $w=1.7e-07 $l=9.20027e-07 $layer=licon1_PDIFF $count=1 $X=12.48
+ $Y=1.825 $X2=12.615 $Y2=2.68
r276 1 84 91 $w=1.7e-07 $l=2.03286e-07 $layer=licon1_NDIFF $count=2 $X=12.18
+ $Y=0.37 $X2=12.32 $Y2=0.515
.ends

.subckt PM_SKY130_FD_SC_MS__EDFXBP_1%CLK 1 3 6 8 14
c38 14 0 5.19822e-20 $X=4.22 $Y=1.385
r39 14 15 72.64 $w=1.7e-07 $l=3.4e-07 $layer=licon1_POLY $count=2 $X=4.22
+ $Y=1.385 $X2=4.22 $Y2=1.385
r40 12 14 20.109 $w=3.3e-07 $l=1.15e-07 $layer=POLY_cond $X=4.105 $Y=1.385
+ $X2=4.22 $Y2=1.385
r41 10 12 15.7375 $w=3.3e-07 $l=9e-08 $layer=POLY_cond $X=4.015 $Y=1.385
+ $X2=4.105 $Y2=1.385
r42 8 15 1.60667 $w=6.68e-07 $l=9e-08 $layer=LI1_cond $X=4.05 $Y=1.295 $X2=4.05
+ $Y2=1.385
r43 4 12 16.9318 $w=1.8e-07 $l=1.65e-07 $layer=POLY_cond $X=4.105 $Y=1.55
+ $X2=4.105 $Y2=1.385
r44 4 6 330.403 $w=1.8e-07 $l=8.5e-07 $layer=POLY_cond $X=4.105 $Y=1.55
+ $X2=4.105 $Y2=2.4
r45 1 10 21.2229 $w=1.5e-07 $l=1.65e-07 $layer=POLY_cond $X=4.015 $Y=1.22
+ $X2=4.015 $Y2=1.385
r46 1 3 154.24 $w=1.5e-07 $l=4.8e-07 $layer=POLY_cond $X=4.015 $Y=1.22 $X2=4.015
+ $Y2=0.74
.ends

.subckt PM_SKY130_FD_SC_MS__EDFXBP_1%A_1008_74# 1 2 9 11 13 14 16 18 21 25 27 28
+ 29 34 35 38 39 42 43 44 46 48 51 55 56 58 59 62 63 66 68 69 71 72 73 81
c221 66 0 1.31135e-19 $X=6.72 $Y=1.18
c222 62 0 1.41465e-19 $X=6.19 $Y=2.215
c223 56 0 2.75085e-19 $X=11 $Y=1.635
c224 55 0 5.74077e-20 $X=11 $Y=1.635
c225 44 0 1.9677e-19 $X=7.81 $Y=0.34
c226 21 0 7.24209e-20 $X=10.955 $Y=2.425
c227 18 0 3.32586e-20 $X=9.395 $Y=1.26
r228 72 81 46.2115 $w=3.3e-07 $l=1.65e-07 $layer=POLY_cond $X=9.92 $Y=1.285
+ $X2=9.755 $Y2=1.285
r229 71 73 8.46218 $w=3.28e-07 $l=1.65e-07 $layer=LI1_cond $X=9.92 $Y=1.285
+ $X2=10.085 $Y2=1.285
r230 71 72 145.28 $w=1.7e-07 $l=1.7e-07 $layer=licon1_POLY $count=1 $X=9.92
+ $Y=1.285 $X2=9.92 $Y2=1.285
r231 69 71 19.2074 $w=3.28e-07 $l=5.5e-07 $layer=LI1_cond $X=9.37 $Y=1.285
+ $X2=9.92 $Y2=1.285
r232 68 69 8.63679 $w=3.28e-07 $l=1.7e-07 $layer=LI1_cond $X=9.2 $Y=1.207
+ $X2=9.37 $Y2=1.207
r233 66 76 21.8577 $w=3.3e-07 $l=1.25e-07 $layer=POLY_cond $X=6.72 $Y=1.18
+ $X2=6.595 $Y2=1.18
r234 65 66 145.28 $w=1.7e-07 $l=1.7e-07 $layer=licon1_POLY $count=1 $X=6.72
+ $Y=1.18 $X2=6.72 $Y2=1.18
r235 63 65 5.9927 $w=2.48e-07 $l=1.3e-07 $layer=LI1_cond $X=6.76 $Y=1.05
+ $X2=6.76 $Y2=1.18
r236 61 62 145.28 $w=1.7e-07 $l=1.7e-07 $layer=licon1_POLY $count=1 $X=6.19
+ $Y=2.215 $X2=6.19 $Y2=2.215
r237 59 61 8.7403 $w=3.35e-07 $l=2.4e-07 $layer=LI1_cond $X=6.155 $Y=1.975
+ $X2=6.155 $Y2=2.215
r238 56 85 40.6903 $w=3.3e-07 $l=1.65e-07 $layer=POLY_cond $X=11 $Y=1.635 $X2=11
+ $Y2=1.8
r239 55 56 145.28 $w=1.7e-07 $l=1.7e-07 $layer=licon1_POLY $count=1 $X=11
+ $Y=1.635 $X2=11 $Y2=1.635
r240 53 55 14.7257 $w=2.68e-07 $l=3.45e-07 $layer=LI1_cond $X=10.97 $Y=1.29
+ $X2=10.97 $Y2=1.635
r241 51 53 7.28469 $w=1.7e-07 $l=1.72337e-07 $layer=LI1_cond $X=10.835 $Y=1.205
+ $X2=10.97 $Y2=1.29
r242 51 73 48.9305 $w=1.68e-07 $l=7.5e-07 $layer=LI1_cond $X=10.835 $Y=1.205
+ $X2=10.085 $Y2=1.205
r243 48 68 46.3209 $w=1.68e-07 $l=7.1e-07 $layer=LI1_cond $X=8.49 $Y=1.05
+ $X2=9.2 $Y2=1.05
r244 46 48 6.81649 $w=1.7e-07 $l=1.20208e-07 $layer=LI1_cond $X=8.405 $Y=0.965
+ $X2=8.49 $Y2=1.05
r245 45 46 35.2299 $w=1.68e-07 $l=5.4e-07 $layer=LI1_cond $X=8.405 $Y=0.425
+ $X2=8.405 $Y2=0.965
r246 43 45 6.81649 $w=1.7e-07 $l=1.20208e-07 $layer=LI1_cond $X=8.32 $Y=0.34
+ $X2=8.405 $Y2=0.425
r247 43 44 33.2727 $w=1.68e-07 $l=5.1e-07 $layer=LI1_cond $X=8.32 $Y=0.34
+ $X2=7.81 $Y2=0.34
r248 41 44 6.81649 $w=1.7e-07 $l=1.20208e-07 $layer=LI1_cond $X=7.725 $Y=0.425
+ $X2=7.81 $Y2=0.34
r249 41 42 35.2299 $w=1.68e-07 $l=5.4e-07 $layer=LI1_cond $X=7.725 $Y=0.425
+ $X2=7.725 $Y2=0.965
r250 40 63 2.99516 $w=1.7e-07 $l=1.25e-07 $layer=LI1_cond $X=6.885 $Y=1.05
+ $X2=6.76 $Y2=1.05
r251 39 42 6.81649 $w=1.7e-07 $l=1.20208e-07 $layer=LI1_cond $X=7.64 $Y=1.05
+ $X2=7.725 $Y2=0.965
r252 39 40 49.2567 $w=1.68e-07 $l=7.55e-07 $layer=LI1_cond $X=7.64 $Y=1.05
+ $X2=6.885 $Y2=1.05
r253 38 63 3.91831 $w=2.48e-07 $l=8.5e-08 $layer=LI1_cond $X=6.76 $Y=0.965
+ $X2=6.76 $Y2=1.05
r254 37 38 24.8928 $w=2.48e-07 $l=5.4e-07 $layer=LI1_cond $X=6.76 $Y=0.425
+ $X2=6.76 $Y2=0.965
r255 36 58 5.16603 $w=1.7e-07 $l=8.5e-08 $layer=LI1_cond $X=6.125 $Y=0.34
+ $X2=6.04 $Y2=0.34
r256 35 37 7.14316 $w=1.7e-07 $l=1.62019e-07 $layer=LI1_cond $X=6.635 $Y=0.34
+ $X2=6.76 $Y2=0.425
r257 35 36 33.2727 $w=1.68e-07 $l=5.1e-07 $layer=LI1_cond $X=6.635 $Y=0.34
+ $X2=6.125 $Y2=0.34
r258 34 59 8.96243 $w=3.35e-07 $l=2.14942e-07 $layer=LI1_cond $X=6.04 $Y=1.81
+ $X2=6.155 $Y2=1.975
r259 33 58 1.34256 $w=1.7e-07 $l=8.5e-08 $layer=LI1_cond $X=6.04 $Y=0.425
+ $X2=6.04 $Y2=0.34
r260 33 34 90.3583 $w=1.68e-07 $l=1.385e-06 $layer=LI1_cond $X=6.04 $Y=0.425
+ $X2=6.04 $Y2=1.81
r261 29 59 0.808037 $w=3.3e-07 $l=2e-07 $layer=LI1_cond $X=5.955 $Y=1.975
+ $X2=6.155 $Y2=1.975
r262 29 31 8.20679 $w=3.28e-07 $l=2.35e-07 $layer=LI1_cond $X=5.955 $Y=1.975
+ $X2=5.72 $Y2=1.975
r263 27 58 5.16603 $w=1.7e-07 $l=8.5e-08 $layer=LI1_cond $X=5.955 $Y=0.34
+ $X2=6.04 $Y2=0.34
r264 27 28 39.7968 $w=1.68e-07 $l=6.1e-07 $layer=LI1_cond $X=5.955 $Y=0.34
+ $X2=5.345 $Y2=0.34
r265 23 28 7.14316 $w=1.7e-07 $l=1.62019e-07 $layer=LI1_cond $X=5.22 $Y=0.425
+ $X2=5.345 $Y2=0.34
r266 23 25 4.14879 $w=2.48e-07 $l=9e-08 $layer=LI1_cond $X=5.22 $Y=0.425
+ $X2=5.22 $Y2=0.515
r267 21 85 242.944 $w=1.8e-07 $l=6.25e-07 $layer=POLY_cond $X=10.955 $Y=2.425
+ $X2=10.955 $Y2=1.8
r268 18 81 184.596 $w=1.5e-07 $l=3.6e-07 $layer=POLY_cond $X=9.395 $Y=1.26
+ $X2=9.755 $Y2=1.26
r269 14 18 26.9307 $w=1.5e-07 $l=1.06066e-07 $layer=POLY_cond $X=9.32 $Y=1.185
+ $X2=9.395 $Y2=1.26
r270 14 16 142.993 $w=1.5e-07 $l=4.45e-07 $layer=POLY_cond $X=9.32 $Y=1.185
+ $X2=9.32 $Y2=0.74
r271 11 76 21.2229 $w=1.5e-07 $l=1.65e-07 $layer=POLY_cond $X=6.595 $Y=1.015
+ $X2=6.595 $Y2=1.18
r272 11 13 102.827 $w=1.5e-07 $l=3.2e-07 $layer=POLY_cond $X=6.595 $Y=1.015
+ $X2=6.595 $Y2=0.695
r273 7 62 76.2055 $w=2.53e-07 $l=4.80833e-07 $layer=POLY_cond $X=6.59 $Y=2.405
+ $X2=6.19 $Y2=2.227
r274 7 9 134.105 $w=1.8e-07 $l=3.45e-07 $layer=POLY_cond $X=6.59 $Y=2.405
+ $X2=6.59 $Y2=2.75
r275 2 31 600 $w=1.7e-07 $l=2.01494e-07 $layer=licon1_PDIFF $count=1 $X=5.585
+ $Y=1.83 $X2=5.72 $Y2=1.975
r276 1 25 91 $w=1.7e-07 $l=2.03286e-07 $layer=licon1_NDIFF $count=2 $X=5.04
+ $Y=0.37 $X2=5.18 $Y2=0.515
.ends

.subckt PM_SKY130_FD_SC_MS__EDFXBP_1%A_818_74# 1 2 9 11 13 15 16 20 22 28 32 36
+ 37 38 40 41 42 46 48 53 55 56 57 58 61 62 63 66 70 75 77 79 84 85 89 94 96
c227 84 0 3.39525e-20 $X=10.46 $Y=1.625
c228 79 0 1.50728e-19 $X=8.28 $Y=2.63
c229 77 0 1.41465e-19 $X=7.235 $Y=2.23
c230 36 0 1.59075e-19 $X=10.985 $Y=1.185
c231 32 0 5.74077e-20 $X=10.385 $Y=2.46
c232 22 0 1.37651e-20 $X=6.595 $Y=1.68
r233 89 90 33.431 $w=4.05e-07 $l=7.5e-08 $layer=POLY_cond $X=4.837 $Y=1.68
+ $X2=4.837 $Y2=1.605
r234 85 97 40.6903 $w=3.3e-07 $l=1.65e-07 $layer=POLY_cond $X=10.46 $Y=1.625
+ $X2=10.46 $Y2=1.79
r235 85 96 46.2115 $w=3.3e-07 $l=1.65e-07 $layer=POLY_cond $X=10.46 $Y=1.625
+ $X2=10.46 $Y2=1.46
r236 84 87 2.7938 $w=3.28e-07 $l=8e-08 $layer=LI1_cond $X=10.46 $Y=1.625
+ $X2=10.46 $Y2=1.705
r237 84 85 145.28 $w=1.7e-07 $l=1.7e-07 $layer=licon1_POLY $count=1 $X=10.46
+ $Y=1.625 $X2=10.46 $Y2=1.625
r238 79 81 13.7005 $w=1.68e-07 $l=2.1e-07 $layer=LI1_cond $X=8.28 $Y=2.63
+ $X2=8.28 $Y2=2.84
r239 75 94 40.6903 $w=3.3e-07 $l=1.65e-07 $layer=POLY_cond $X=7.055 $Y=2.215
+ $X2=7.055 $Y2=2.38
r240 74 77 6.91466 $w=2.98e-07 $l=1.8e-07 $layer=LI1_cond $X=7.055 $Y=2.23
+ $X2=7.235 $Y2=2.23
r241 74 75 145.28 $w=1.7e-07 $l=1.7e-07 $layer=licon1_POLY $count=1 $X=7.055
+ $Y=2.215 $X2=7.055 $Y2=2.215
r242 71 89 40.51 $w=4.05e-07 $l=2.95e-07 $layer=POLY_cond $X=4.837 $Y=1.975
+ $X2=4.837 $Y2=1.68
r243 70 71 145.28 $w=1.7e-07 $l=1.7e-07 $layer=licon1_POLY $count=1 $X=4.8
+ $Y=1.975 $X2=4.8 $Y2=1.975
r244 68 70 5.5876 $w=3.28e-07 $l=1.6e-07 $layer=LI1_cond $X=4.64 $Y=1.975
+ $X2=4.8 $Y2=1.975
r245 62 87 4.62375 $w=1.7e-07 $l=1.65e-07 $layer=LI1_cond $X=10.295 $Y=1.705
+ $X2=10.46 $Y2=1.705
r246 62 63 58.0642 $w=1.68e-07 $l=8.9e-07 $layer=LI1_cond $X=10.295 $Y=1.705
+ $X2=9.405 $Y2=1.705
r247 60 63 6.81649 $w=1.7e-07 $l=1.20208e-07 $layer=LI1_cond $X=9.32 $Y=1.79
+ $X2=9.405 $Y2=1.705
r248 60 61 62.9572 $w=1.68e-07 $l=9.65e-07 $layer=LI1_cond $X=9.32 $Y=1.79
+ $X2=9.32 $Y2=2.755
r249 59 81 0.716491 $w=1.7e-07 $l=8.5e-08 $layer=LI1_cond $X=8.365 $Y=2.84
+ $X2=8.28 $Y2=2.84
r250 58 61 6.81649 $w=1.7e-07 $l=1.20208e-07 $layer=LI1_cond $X=9.235 $Y=2.84
+ $X2=9.32 $Y2=2.755
r251 58 59 56.7594 $w=1.68e-07 $l=8.7e-07 $layer=LI1_cond $X=9.235 $Y=2.84
+ $X2=8.365 $Y2=2.84
r252 56 79 0.716491 $w=1.7e-07 $l=8.5e-08 $layer=LI1_cond $X=8.195 $Y=2.63
+ $X2=8.28 $Y2=2.63
r253 56 57 57.0856 $w=1.68e-07 $l=8.75e-07 $layer=LI1_cond $X=8.195 $Y=2.63
+ $X2=7.32 $Y2=2.63
r254 55 57 6.81649 $w=1.7e-07 $l=1.20208e-07 $layer=LI1_cond $X=7.235 $Y=2.545
+ $X2=7.32 $Y2=2.63
r255 54 77 4.061 $w=1.7e-07 $l=1.5e-07 $layer=LI1_cond $X=7.235 $Y=2.38
+ $X2=7.235 $Y2=2.23
r256 54 55 10.7647 $w=1.68e-07 $l=1.65e-07 $layer=LI1_cond $X=7.235 $Y=2.38
+ $X2=7.235 $Y2=2.545
r257 53 68 4.62375 $w=1.7e-07 $l=1.65e-07 $layer=LI1_cond $X=4.64 $Y=1.81
+ $X2=4.64 $Y2=1.975
r258 52 66 0.716491 $w=1.7e-07 $l=8.5e-08 $layer=LI1_cond $X=4.64 $Y=1.01
+ $X2=4.64 $Y2=0.925
r259 52 53 52.1925 $w=1.68e-07 $l=8e-07 $layer=LI1_cond $X=4.64 $Y=1.01 $X2=4.64
+ $Y2=1.81
r260 48 68 2.96841 $w=3.28e-07 $l=8.5e-08 $layer=LI1_cond $X=4.555 $Y=1.975
+ $X2=4.64 $Y2=1.975
r261 48 50 7.85757 $w=3.28e-07 $l=2.25e-07 $layer=LI1_cond $X=4.555 $Y=1.975
+ $X2=4.33 $Y2=1.975
r262 44 66 26.7487 $w=1.68e-07 $l=4.1e-07 $layer=LI1_cond $X=4.23 $Y=0.925
+ $X2=4.64 $Y2=0.925
r263 44 46 11.3498 $w=3.28e-07 $l=3.25e-07 $layer=LI1_cond $X=4.23 $Y=0.84
+ $X2=4.23 $Y2=0.515
r264 38 40 99.6133 $w=1.5e-07 $l=3.1e-07 $layer=POLY_cond $X=11.06 $Y=1.11
+ $X2=11.06 $Y2=0.8
r265 36 38 26.9307 $w=1.5e-07 $l=1.06066e-07 $layer=POLY_cond $X=10.985 $Y=1.185
+ $X2=11.06 $Y2=1.11
r266 36 37 184.596 $w=1.5e-07 $l=3.6e-07 $layer=POLY_cond $X=10.985 $Y=1.185
+ $X2=10.625 $Y2=1.185
r267 34 37 26.9307 $w=1.5e-07 $l=1.06066e-07 $layer=POLY_cond $X=10.55 $Y=1.26
+ $X2=10.625 $Y2=1.185
r268 34 96 102.553 $w=1.5e-07 $l=2e-07 $layer=POLY_cond $X=10.55 $Y=1.26
+ $X2=10.55 $Y2=1.46
r269 32 97 260.435 $w=1.8e-07 $l=6.7e-07 $layer=POLY_cond $X=10.385 $Y=2.46
+ $X2=10.385 $Y2=1.79
r270 28 94 143.823 $w=1.8e-07 $l=3.7e-07 $layer=POLY_cond $X=7.04 $Y=2.75
+ $X2=7.04 $Y2=2.38
r271 24 75 34.9723 $w=3.3e-07 $l=2e-07 $layer=POLY_cond $X=7.055 $Y=2.015
+ $X2=7.055 $Y2=2.215
r272 23 42 20.4101 $w=1.5e-07 $l=7.5e-08 $layer=POLY_cond $X=5.99 $Y=1.68
+ $X2=5.915 $Y2=1.68
r273 22 24 108.771 $w=2.12e-07 $l=5.44702e-07 $layer=POLY_cond $X=6.595 $Y=1.68
+ $X2=7.055 $Y2=1.865
r274 22 23 310.223 $w=1.5e-07 $l=6.05e-07 $layer=POLY_cond $X=6.595 $Y=1.68
+ $X2=5.99 $Y2=1.68
r275 18 42 5.30422 $w=1.5e-07 $l=7.5e-08 $layer=POLY_cond $X=5.915 $Y=1.605
+ $X2=5.915 $Y2=1.68
r276 18 20 466.617 $w=1.5e-07 $l=9.1e-07 $layer=POLY_cond $X=5.915 $Y=1.605
+ $X2=5.915 $Y2=0.695
r277 17 41 23.6879 $w=1.5e-07 $l=9e-08 $layer=POLY_cond $X=5.585 $Y=1.68
+ $X2=5.495 $Y2=1.68
r278 16 42 20.4101 $w=1.5e-07 $l=7.5e-08 $layer=POLY_cond $X=5.84 $Y=1.68
+ $X2=5.915 $Y2=1.68
r279 16 17 130.755 $w=1.5e-07 $l=2.55e-07 $layer=POLY_cond $X=5.84 $Y=1.68
+ $X2=5.585 $Y2=1.68
r280 13 41 2.7459 $w=1.8e-07 $l=7.5e-08 $layer=POLY_cond $X=5.495 $Y=1.755
+ $X2=5.495 $Y2=1.68
r281 13 15 170.039 $w=1.8e-07 $l=6.35e-07 $layer=POLY_cond $X=5.495 $Y=1.755
+ $X2=5.495 $Y2=2.39
r282 12 89 26.1659 $w=1.5e-07 $l=2.03e-07 $layer=POLY_cond $X=5.04 $Y=1.68
+ $X2=4.837 $Y2=1.68
r283 11 41 23.6879 $w=1.5e-07 $l=9e-08 $layer=POLY_cond $X=5.405 $Y=1.68
+ $X2=5.495 $Y2=1.68
r284 11 12 187.16 $w=1.5e-07 $l=3.65e-07 $layer=POLY_cond $X=5.405 $Y=1.68
+ $X2=5.04 $Y2=1.68
r285 9 90 443.543 $w=1.5e-07 $l=8.65e-07 $layer=POLY_cond $X=4.965 $Y=0.74
+ $X2=4.965 $Y2=1.605
r286 2 50 600 $w=1.7e-07 $l=2.38118e-07 $layer=licon1_PDIFF $count=1 $X=4.195
+ $Y=1.84 $X2=4.33 $Y2=2.02
r287 1 46 91 $w=1.7e-07 $l=2.03286e-07 $layer=licon1_NDIFF $count=2 $X=4.09
+ $Y=0.37 $X2=4.23 $Y2=0.515
.ends

.subckt PM_SKY130_FD_SC_MS__EDFXBP_1%A_1419_71# 1 2 9 13 17 19 21 23 24 28 30 32
+ 37 39 40 43 45 46 49
c135 49 0 1.50728e-19 $X=8.865 $Y=2.42
c136 45 0 1.30788e-19 $X=7.535 $Y=1.437
c137 30 0 3.32586e-20 $X=8.7 $Y=1.39
c138 19 0 3.39525e-20 $X=9.875 $Y=1.81
c139 9 0 1.9677e-19 $X=7.17 $Y=0.695
r140 50 58 12.9189 $w=3.35e-07 $l=7.5e-08 $layer=POLY_cond $X=8.867 $Y=1.885
+ $X2=8.867 $Y2=1.81
r141 49 50 92.1545 $w=3.35e-07 $l=5.35e-07 $layer=POLY_cond $X=8.867 $Y=2.42
+ $X2=8.867 $Y2=1.885
r142 48 49 96.8533 $w=1.7e-07 $l=2.55e-07 $layer=licon1_POLY $count=1 $X=8.865
+ $Y=2.42 $X2=8.865 $Y2=2.42
r143 42 45 8.65224 $w=2.63e-07 $l=1.65e-07 $layer=LI1_cond $X=7.37 $Y=1.437
+ $X2=7.535 $Y2=1.437
r144 42 43 145.28 $w=1.7e-07 $l=1.7e-07 $layer=licon1_POLY $count=1 $X=7.37
+ $Y=1.435 $X2=7.37 $Y2=1.435
r145 40 58 12.0576 $w=3.35e-07 $l=7e-08 $layer=POLY_cond $X=8.867 $Y=1.74
+ $X2=8.867 $Y2=1.81
r146 40 57 46.255 $w=3.35e-07 $l=1.65e-07 $layer=POLY_cond $X=8.867 $Y=1.74
+ $X2=8.867 $Y2=1.575
r147 39 40 96.8533 $w=1.7e-07 $l=2.55e-07 $layer=licon1_POLY $count=1 $X=8.865
+ $Y=1.74 $X2=8.865 $Y2=1.74
r148 37 48 3.2138 $w=3.3e-07 $l=2.3e-07 $layer=LI1_cond $X=8.865 $Y=2.125
+ $X2=8.865 $Y2=2.355
r149 37 39 13.4452 $w=3.28e-07 $l=3.85e-07 $layer=LI1_cond $X=8.865 $Y=2.125
+ $X2=8.865 $Y2=1.74
r150 36 39 9.25447 $w=3.28e-07 $l=2.65e-07 $layer=LI1_cond $X=8.865 $Y=1.475
+ $X2=8.865 $Y2=1.74
r151 32 48 3.77273 $w=2.5e-07 $l=2.11069e-07 $layer=LI1_cond $X=8.7 $Y=2.25
+ $X2=8.865 $Y2=2.355
r152 32 34 14.0598 $w=2.48e-07 $l=3.05e-07 $layer=LI1_cond $X=8.7 $Y=2.25
+ $X2=8.395 $Y2=2.25
r153 31 46 5.16603 $w=1.7e-07 $l=8.5e-08 $layer=LI1_cond $X=8.15 $Y=1.39
+ $X2=8.065 $Y2=1.39
r154 30 36 7.76618 $w=1.7e-07 $l=2.03101e-07 $layer=LI1_cond $X=8.7 $Y=1.39
+ $X2=8.865 $Y2=1.475
r155 30 31 35.8824 $w=1.68e-07 $l=5.5e-07 $layer=LI1_cond $X=8.7 $Y=1.39
+ $X2=8.15 $Y2=1.39
r156 26 46 1.34256 $w=1.7e-07 $l=8.5e-08 $layer=LI1_cond $X=8.065 $Y=1.305
+ $X2=8.065 $Y2=1.39
r157 26 28 32.2941 $w=1.68e-07 $l=4.95e-07 $layer=LI1_cond $X=8.065 $Y=1.305
+ $X2=8.065 $Y2=0.81
r158 24 46 5.16603 $w=1.7e-07 $l=8.5e-08 $layer=LI1_cond $X=7.98 $Y=1.39
+ $X2=8.065 $Y2=1.39
r159 24 45 29.0321 $w=1.68e-07 $l=4.45e-07 $layer=LI1_cond $X=7.98 $Y=1.39
+ $X2=7.535 $Y2=1.39
r160 21 23 153.972 $w=1.8e-07 $l=5.75e-07 $layer=POLY_cond $X=9.965 $Y=1.885
+ $X2=9.965 $Y2=2.46
r161 20 58 21.5811 $w=1.5e-07 $l=1.68e-07 $layer=POLY_cond $X=9.035 $Y=1.81
+ $X2=8.867 $Y2=1.81
r162 19 21 27.2212 $w=1.5e-07 $l=1.21861e-07 $layer=POLY_cond $X=9.875 $Y=1.81
+ $X2=9.965 $Y2=1.885
r163 19 20 430.723 $w=1.5e-07 $l=8.4e-07 $layer=POLY_cond $X=9.875 $Y=1.81
+ $X2=9.035 $Y2=1.81
r164 17 57 428.16 $w=1.5e-07 $l=8.35e-07 $layer=POLY_cond $X=8.96 $Y=0.74
+ $X2=8.96 $Y2=1.575
r165 11 43 30.0208 $w=2.89e-07 $l=2.80936e-07 $layer=POLY_cond $X=7.55 $Y=1.625
+ $X2=7.37 $Y2=1.42
r166 11 13 437.298 $w=1.8e-07 $l=1.125e-06 $layer=POLY_cond $X=7.55 $Y=1.625
+ $X2=7.55 $Y2=2.75
r167 7 43 33.3564 $w=2.89e-07 $l=2.88141e-07 $layer=POLY_cond $X=7.17 $Y=1.215
+ $X2=7.37 $Y2=1.42
r168 7 9 266.638 $w=1.5e-07 $l=5.2e-07 $layer=POLY_cond $X=7.17 $Y=1.215
+ $X2=7.17 $Y2=0.695
r169 2 34 600 $w=1.7e-07 $l=2.27706e-07 $layer=licon1_PDIFF $count=1 $X=8.26
+ $Y=2.12 $X2=8.395 $Y2=2.29
r170 1 28 182 $w=1.7e-07 $l=5.05173e-07 $layer=licon1_NDIFF $count=1 $X=7.925
+ $Y=0.37 $X2=8.065 $Y2=0.81
.ends

.subckt PM_SKY130_FD_SC_MS__EDFXBP_1%A_1198_97# 1 2 7 9 14 18 22 25 27 34 35 36
+ 39
r105 35 40 40.6903 $w=3.3e-07 $l=1.65e-07 $layer=POLY_cond $X=8.095 $Y=1.79
+ $X2=8.095 $Y2=1.955
r106 35 39 46.2115 $w=3.3e-07 $l=1.65e-07 $layer=POLY_cond $X=8.095 $Y=1.79
+ $X2=8.095 $Y2=1.625
r107 34 36 8.46729 $w=3.08e-07 $l=1.65e-07 $layer=LI1_cond $X=8.095 $Y=1.8
+ $X2=7.93 $Y2=1.8
r108 34 35 145.28 $w=1.7e-07 $l=1.7e-07 $layer=licon1_POLY $count=1 $X=8.095
+ $Y=1.79 $X2=8.095 $Y2=1.79
r109 28 29 11.9654 $w=2.6e-07 $l=2.55e-07 $layer=LI1_cond $X=6.38 $Y=1.685
+ $X2=6.635 $Y2=1.685
r110 27 29 5.4494 $w=2.6e-07 $l=1.77482e-07 $layer=LI1_cond $X=6.72 $Y=1.825
+ $X2=6.635 $Y2=1.685
r111 27 36 78.9412 $w=1.68e-07 $l=1.21e-06 $layer=LI1_cond $X=6.72 $Y=1.825
+ $X2=7.93 $Y2=1.825
r112 25 32 5.95122 $w=3.69e-07 $l=2.91419e-07 $layer=LI1_cond $X=6.635 $Y=2.55
+ $X2=6.815 $Y2=2.765
r113 24 29 3.22376 $w=1.7e-07 $l=2.25e-07 $layer=LI1_cond $X=6.635 $Y=1.91
+ $X2=6.635 $Y2=1.685
r114 24 25 41.754 $w=1.68e-07 $l=6.4e-07 $layer=LI1_cond $X=6.635 $Y=1.91
+ $X2=6.635 $Y2=2.55
r115 20 28 3.22376 $w=1.7e-07 $l=1.7e-07 $layer=LI1_cond $X=6.38 $Y=1.515
+ $X2=6.38 $Y2=1.685
r116 20 22 49.2567 $w=1.68e-07 $l=7.55e-07 $layer=LI1_cond $X=6.38 $Y=1.515
+ $X2=6.38 $Y2=0.76
r117 16 18 79.4787 $w=1.5e-07 $l=1.55e-07 $layer=POLY_cond $X=7.85 $Y=1.16
+ $X2=8.005 $Y2=1.16
r118 14 40 227.395 $w=1.8e-07 $l=5.85e-07 $layer=POLY_cond $X=8.17 $Y=2.54
+ $X2=8.17 $Y2=1.955
r119 10 18 2.83073 $w=1.5e-07 $l=7.5e-08 $layer=POLY_cond $X=8.005 $Y=1.235
+ $X2=8.005 $Y2=1.16
r120 10 39 199.979 $w=1.5e-07 $l=3.9e-07 $layer=POLY_cond $X=8.005 $Y=1.235
+ $X2=8.005 $Y2=1.625
r121 7 16 2.83073 $w=1.5e-07 $l=7.5e-08 $layer=POLY_cond $X=7.85 $Y=1.085
+ $X2=7.85 $Y2=1.16
r122 7 9 126.927 $w=1.5e-07 $l=3.95e-07 $layer=POLY_cond $X=7.85 $Y=1.085
+ $X2=7.85 $Y2=0.69
r123 2 32 600 $w=1.7e-07 $l=2.84605e-07 $layer=licon1_PDIFF $count=1 $X=6.68
+ $Y=2.54 $X2=6.815 $Y2=2.765
r124 1 22 182 $w=1.7e-07 $l=5.09264e-07 $layer=licon1_NDIFF $count=1 $X=5.99
+ $Y=0.485 $X2=6.38 $Y2=0.76
.ends

.subckt PM_SKY130_FD_SC_MS__EDFXBP_1%A_1879_74# 1 2 9 11 13 14 15 16 18 21 24 26
+ 32 34 36 39 41 44 49
c126 49 0 1.03676e-19 $X=11.36 $Y=1.32
c127 26 0 1.71408e-19 $X=11.275 $Y=0.785
r128 51 52 31.363 $w=4.38e-07 $l=2.85e-07 $layer=POLY_cond $X=12.105 $Y=1.45
+ $X2=12.39 $Y2=1.45
r129 45 51 22.5594 $w=4.38e-07 $l=2.05e-07 $layer=POLY_cond $X=11.9 $Y=1.45
+ $X2=12.105 $Y2=1.45
r130 44 45 145.28 $w=1.7e-07 $l=1.7e-07 $layer=licon1_POLY $count=1 $X=11.9
+ $Y=1.32 $X2=11.9 $Y2=1.32
r131 42 49 0.89609 $w=3.3e-07 $l=8.5e-08 $layer=LI1_cond $X=11.445 $Y=1.32
+ $X2=11.36 $Y2=1.32
r132 42 44 15.8897 $w=3.28e-07 $l=4.55e-07 $layer=LI1_cond $X=11.445 $Y=1.32
+ $X2=11.9 $Y2=1.32
r133 40 49 8.61065 $w=1.7e-07 $l=1.65e-07 $layer=LI1_cond $X=11.36 $Y=1.485
+ $X2=11.36 $Y2=1.32
r134 40 41 32.6203 $w=1.68e-07 $l=5e-07 $layer=LI1_cond $X=11.36 $Y=1.485
+ $X2=11.36 $Y2=1.985
r135 39 49 8.61065 $w=1.7e-07 $l=1.65e-07 $layer=LI1_cond $X=11.36 $Y=1.155
+ $X2=11.36 $Y2=1.32
r136 38 39 13.3743 $w=1.68e-07 $l=2.05e-07 $layer=LI1_cond $X=11.36 $Y=0.95
+ $X2=11.36 $Y2=1.155
r137 37 48 5.12568 $w=1.7e-07 $l=1.65e-07 $layer=LI1_cond $X=10.775 $Y=2.07
+ $X2=10.61 $Y2=2.07
r138 36 41 6.81649 $w=1.7e-07 $l=1.20208e-07 $layer=LI1_cond $X=11.275 $Y=2.07
+ $X2=11.36 $Y2=1.985
r139 36 37 32.6203 $w=1.68e-07 $l=5e-07 $layer=LI1_cond $X=11.275 $Y=2.07
+ $X2=10.775 $Y2=2.07
r140 32 48 2.6405 $w=3.3e-07 $l=8.5e-08 $layer=LI1_cond $X=10.61 $Y=2.155
+ $X2=10.61 $Y2=2.07
r141 32 34 23.0489 $w=3.28e-07 $l=6.6e-07 $layer=LI1_cond $X=10.61 $Y=2.155
+ $X2=10.61 $Y2=2.815
r142 28 31 42.6055 $w=3.28e-07 $l=1.22e-06 $layer=LI1_cond $X=9.625 $Y=0.785
+ $X2=10.845 $Y2=0.785
r143 26 38 7.76618 $w=3.3e-07 $l=2.03101e-07 $layer=LI1_cond $X=11.275 $Y=0.785
+ $X2=11.36 $Y2=0.95
r144 26 31 15.0167 $w=3.28e-07 $l=4.3e-07 $layer=LI1_cond $X=11.275 $Y=0.785
+ $X2=10.845 $Y2=0.785