* File: sky130_fd_sc_ms__o2111a_4.pex.spice
* Created: Wed Sep  2 12:17:50 2020
* Program "Calibre xRC"
* Version "v2018.4_34.26"
* Nominal Temperature: 27C
* Circuit Temperature: 27C
* 
.subckt PM_SKY130_FD_SC_MS__O2111A_4%D1 3 7 9 13 17 19 20 23 24
r58 26 27 26.2192 $w=3.75e-07 $l=7.5e-08 $layer=POLY_cond $X=0.407 $Y=1.705
+ $X2=0.407 $Y2=1.78
r59 23 26 13.3477 $w=3.75e-07 $l=9e-08 $layer=POLY_cond $X=0.407 $Y=1.615
+ $X2=0.407 $Y2=1.705
r60 23 25 45.1558 $w=3.75e-07 $l=1.65e-07 $layer=POLY_cond $X=0.407 $Y=1.615
+ $X2=0.407 $Y2=1.45
r61 23 24 145.28 $w=1.7e-07 $l=1.7e-07 $layer=licon1_POLY $count=1 $X=0.385
+ $Y=1.615 $X2=0.385 $Y2=1.615
r62 20 24 5.06376 $w=3.28e-07 $l=1.45e-07 $layer=LI1_cond $X=0.24 $Y=1.615
+ $X2=0.385 $Y2=1.615
r63 15 19 18.8402 $w=1.65e-07 $l=9.87421e-08 $layer=POLY_cond $X=1.055 $Y=1.78
+ $X2=1 $Y2=1.705
r64 15 17 233.226 $w=1.8e-07 $l=6e-07 $layer=POLY_cond $X=1.055 $Y=1.78
+ $X2=1.055 $Y2=2.38
r65 11 19 18.8402 $w=1.65e-07 $l=1.04283e-07 $layer=POLY_cond $X=0.93 $Y=1.63
+ $X2=1 $Y2=1.705
r66 11 13 456.362 $w=1.5e-07 $l=8.9e-07 $layer=POLY_cond $X=0.93 $Y=1.63
+ $X2=0.93 $Y2=0.74
r67 10 26 24.2915 $w=1.5e-07 $l=1.88e-07 $layer=POLY_cond $X=0.595 $Y=1.705
+ $X2=0.407 $Y2=1.705
r68 9 19 6.66866 $w=1.5e-07 $l=1.45e-07 $layer=POLY_cond $X=0.855 $Y=1.705 $X2=1
+ $Y2=1.705
r69 9 10 133.319 $w=1.5e-07 $l=2.6e-07 $layer=POLY_cond $X=0.855 $Y=1.705
+ $X2=0.595 $Y2=1.705
r70 7 25 364.064 $w=1.5e-07 $l=7.1e-07 $layer=POLY_cond $X=0.5 $Y=0.74 $X2=0.5
+ $Y2=1.45
r71 3 27 233.226 $w=1.8e-07 $l=6e-07 $layer=POLY_cond $X=0.505 $Y=2.38 $X2=0.505
+ $Y2=1.78
.ends

.subckt PM_SKY130_FD_SC_MS__O2111A_4%C1 1 3 6 8 10 13 15 16 24
r51 24 25 23.1317 $w=4.48e-07 $l=2.15e-07 $layer=POLY_cond $X=1.79 $Y=1.482
+ $X2=2.005 $Y2=1.482
r52 22 24 22.5938 $w=4.48e-07 $l=2.1e-07 $layer=POLY_cond $X=1.58 $Y=1.482
+ $X2=1.79 $Y2=1.482
r53 22 23 145.28 $w=1.7e-07 $l=1.7e-07 $layer=licon1_POLY $count=1 $X=1.58
+ $Y=1.615 $X2=1.58 $Y2=1.615
r54 20 22 8.0692 $w=4.48e-07 $l=7.5e-08 $layer=POLY_cond $X=1.505 $Y=1.482
+ $X2=1.58 $Y2=1.482
r55 16 23 3.49225 $w=3.28e-07 $l=1e-07 $layer=LI1_cond $X=1.68 $Y=1.615 $X2=1.58
+ $Y2=1.615
r56 15 23 13.2706 $w=3.28e-07 $l=3.8e-07 $layer=LI1_cond $X=1.2 $Y=1.615
+ $X2=1.58 $Y2=1.615
r57 11 25 24.1837 $w=1.8e-07 $l=2.98e-07 $layer=POLY_cond $X=2.005 $Y=1.78
+ $X2=2.005 $Y2=1.482
r58 11 13 233.226 $w=1.8e-07 $l=6e-07 $layer=POLY_cond $X=2.005 $Y=1.78
+ $X2=2.005 $Y2=2.38
r59 8 24 28.6558 $w=1.5e-07 $l=2.97e-07 $layer=POLY_cond $X=1.79 $Y=1.185
+ $X2=1.79 $Y2=1.482
r60 8 10 142.993 $w=1.5e-07 $l=4.45e-07 $layer=POLY_cond $X=1.79 $Y=1.185
+ $X2=1.79 $Y2=0.74
r61 4 20 24.1837 $w=1.8e-07 $l=2.98e-07 $layer=POLY_cond $X=1.505 $Y=1.78
+ $X2=1.505 $Y2=1.482
r62 4 6 233.226 $w=1.8e-07 $l=6e-07 $layer=POLY_cond $X=1.505 $Y=1.78 $X2=1.505
+ $Y2=2.38
r63 1 20 15.6004 $w=4.48e-07 $l=3.62318e-07 $layer=POLY_cond $X=1.36 $Y=1.185
+ $X2=1.505 $Y2=1.482
r64 1 3 142.993 $w=1.5e-07 $l=4.45e-07 $layer=POLY_cond $X=1.36 $Y=1.185
+ $X2=1.36 $Y2=0.74
.ends

.subckt PM_SKY130_FD_SC_MS__O2111A_4%B1 3 7 11 15 17 23
c50 15 0 2.37497e-19 $X=3.255 $Y=0.91
r51 23 25 18.0107 $w=2.81e-07 $l=1.05e-07 $layer=POLY_cond $X=3.15 $Y=1.615
+ $X2=3.255 $Y2=1.615
r52 21 23 12.8648 $w=2.81e-07 $l=7.5e-08 $layer=POLY_cond $X=3.075 $Y=1.615
+ $X2=3.15 $Y2=1.615
r53 20 21 42.8826 $w=2.81e-07 $l=2.5e-07 $layer=POLY_cond $X=2.825 $Y=1.615
+ $X2=3.075 $Y2=1.615
r54 17 23 145.28 $w=1.7e-07 $l=1.7e-07 $layer=licon1_POLY $count=1 $X=3.15
+ $Y=1.615 $X2=3.15 $Y2=1.615
r55 13 25 17.4353 $w=1.5e-07 $l=1.65e-07 $layer=POLY_cond $X=3.255 $Y=1.45
+ $X2=3.255 $Y2=1.615
r56 13 15 276.894 $w=1.5e-07 $l=5.4e-07 $layer=POLY_cond $X=3.255 $Y=1.45
+ $X2=3.255 $Y2=0.91
r57 9 21 13.2092 $w=1.8e-07 $l=1.65e-07 $layer=POLY_cond $X=3.075 $Y=1.78
+ $X2=3.075 $Y2=1.615
r58 9 11 233.226 $w=1.8e-07 $l=6e-07 $layer=POLY_cond $X=3.075 $Y=1.78 $X2=3.075
+ $Y2=2.38
r59 5 20 17.4353 $w=1.5e-07 $l=1.65e-07 $layer=POLY_cond $X=2.825 $Y=1.45
+ $X2=2.825 $Y2=1.615
r60 5 7 276.894 $w=1.5e-07 $l=5.4e-07 $layer=POLY_cond $X=2.825 $Y=1.45
+ $X2=2.825 $Y2=0.91
r61 1 20 34.306 $w=2.81e-07 $l=2.70185e-07 $layer=POLY_cond $X=2.625 $Y=1.78
+ $X2=2.825 $Y2=1.615
r62 1 3 233.226 $w=1.8e-07 $l=6e-07 $layer=POLY_cond $X=2.625 $Y=1.78 $X2=2.625
+ $Y2=2.38
.ends

.subckt PM_SKY130_FD_SC_MS__O2111A_4%A2 3 7 11 15 17 18 19 20 32
r51 31 32 2.62292 $w=3.3e-07 $l=1.5e-08 $layer=POLY_cond $X=4.16 $Y=1.615
+ $X2=4.175 $Y2=1.615
r52 29 31 14.8632 $w=3.3e-07 $l=8.5e-08 $layer=POLY_cond $X=4.075 $Y=1.615
+ $X2=4.16 $Y2=1.615
r53 27 29 68.1959 $w=3.3e-07 $l=3.9e-07 $layer=POLY_cond $X=3.685 $Y=1.615
+ $X2=4.075 $Y2=1.615
r54 25 27 4.37153 $w=3.3e-07 $l=2.5e-08 $layer=POLY_cond $X=3.66 $Y=1.615
+ $X2=3.685 $Y2=1.615
r55 19 20 16.7628 $w=3.28e-07 $l=4.8e-07 $layer=LI1_cond $X=4.56 $Y=1.615
+ $X2=5.04 $Y2=1.615
r56 18 19 16.9374 $w=3.28e-07 $l=4.85e-07 $layer=LI1_cond $X=4.075 $Y=1.615
+ $X2=4.56 $Y2=1.615
r57 18 29 72.64 $w=1.7e-07 $l=3.4e-07 $layer=licon1_POLY $count=2 $X=4.075
+ $Y=1.615 $X2=4.075 $Y2=1.615
r58 17 18 16.5882 $w=3.28e-07 $l=4.75e-07 $layer=LI1_cond $X=3.6 $Y=1.615
+ $X2=4.075 $Y2=1.615
r59 13 32 21.2229 $w=1.5e-07 $l=1.65e-07 $layer=POLY_cond $X=4.175 $Y=1.45
+ $X2=4.175 $Y2=1.615
r60 13 15 276.894 $w=1.5e-07 $l=5.4e-07 $layer=POLY_cond $X=4.175 $Y=1.45
+ $X2=4.175 $Y2=0.91
r61 9 31 16.9318 $w=1.8e-07 $l=1.65e-07 $layer=POLY_cond $X=4.16 $Y=1.78
+ $X2=4.16 $Y2=1.615
r62 9 11 264.323 $w=1.8e-07 $l=6.8e-07 $layer=POLY_cond $X=4.16 $Y=1.78 $X2=4.16
+ $Y2=2.46
r63 5 27 21.2229 $w=1.5e-07 $l=1.65e-07 $layer=POLY_cond $X=3.685 $Y=1.45
+ $X2=3.685 $Y2=1.615
r64 5 7 276.894 $w=1.5e-07 $l=5.4e-07 $layer=POLY_cond $X=3.685 $Y=1.45
+ $X2=3.685 $Y2=0.91
r65 1 25 16.9318 $w=1.8e-07 $l=1.65e-07 $layer=POLY_cond $X=3.66 $Y=1.78
+ $X2=3.66 $Y2=1.615
r66 1 3 264.323 $w=1.8e-07 $l=6.8e-07 $layer=POLY_cond $X=3.66 $Y=1.78 $X2=3.66
+ $Y2=2.46
.ends

.subckt PM_SKY130_FD_SC_MS__O2111A_4%A1 3 7 11 13 15 16 23
c48 11 0 3.86387e-19 $X=5.635 $Y=0.74
r49 23 24 4.96176 $w=3.4e-07 $l=3.5e-08 $layer=POLY_cond $X=5.635 $Y=1.66
+ $X2=5.67 $Y2=1.66
r50 21 23 20.5559 $w=3.4e-07 $l=1.45e-07 $layer=POLY_cond $X=5.49 $Y=1.66
+ $X2=5.635 $Y2=1.66
r51 16 21 145.28 $w=1.7e-07 $l=1.7e-07 $layer=licon1_POLY $count=1 $X=5.49
+ $Y=1.615 $X2=5.49 $Y2=1.615
r52 13 24 17.6285 $w=1.8e-07 $l=2.1e-07 $layer=POLY_cond $X=5.67 $Y=1.87
+ $X2=5.67 $Y2=1.66
r53 13 15 157.989 $w=1.8e-07 $l=5.9e-07 $layer=POLY_cond $X=5.67 $Y=1.87
+ $X2=5.67 $Y2=2.46
r54 9 23 21.9347 $w=1.5e-07 $l=2.1e-07 $layer=POLY_cond $X=5.635 $Y=1.45
+ $X2=5.635 $Y2=1.66
r55 9 11 364.064 $w=1.5e-07 $l=7.1e-07 $layer=POLY_cond $X=5.635 $Y=1.45
+ $X2=5.635 $Y2=0.74
r56 5 21 38.2765 $w=3.4e-07 $l=2.7e-07 $layer=POLY_cond $X=5.22 $Y=1.66 $X2=5.49
+ $Y2=1.66
r57 5 18 2.12647 $w=3.4e-07 $l=1.5e-08 $layer=POLY_cond $X=5.22 $Y=1.66
+ $X2=5.205 $Y2=1.66
r58 5 7 264.323 $w=1.8e-07 $l=6.8e-07 $layer=POLY_cond $X=5.22 $Y=1.78 $X2=5.22
+ $Y2=2.46
r59 1 18 21.9347 $w=1.5e-07 $l=2.1e-07 $layer=POLY_cond $X=5.205 $Y=1.45
+ $X2=5.205 $Y2=1.66
r60 1 3 364.064 $w=1.5e-07 $l=7.1e-07 $layer=POLY_cond $X=5.205 $Y=1.45
+ $X2=5.205 $Y2=0.74
.ends

.subckt PM_SKY130_FD_SC_MS__O2111A_4%A_27_392# 1 2 3 4 5 6 21 25 29 33 37 41 43
+ 44 47 51 53 56 59 60 64 68 73 74 76 77 79 80 85 89 91 94 96 98 100 102
c218 80 0 1.58594e-19 $X=6.145 $Y=1.515
c219 60 0 1.9161e-19 $X=1.115 $Y=2.035
c220 25 0 1.44056e-19 $X=6.205 $Y=2.4
r221 112 113 3.00312 $w=3.21e-07 $l=2e-08 $layer=POLY_cond $X=7.135 $Y=1.515
+ $X2=7.155 $Y2=1.515
r222 109 110 21.0218 $w=3.21e-07 $l=1.4e-07 $layer=POLY_cond $X=6.565 $Y=1.515
+ $X2=6.705 $Y2=1.515
r223 106 107 10.5109 $w=3.21e-07 $l=7e-08 $layer=POLY_cond $X=6.135 $Y=1.515
+ $X2=6.205 $Y2=1.515
r224 102 104 6.46067 $w=3.28e-07 $l=1.85e-07 $layer=LI1_cond $X=4.385 $Y=2.805
+ $X2=4.385 $Y2=2.99
r225 91 93 8.98035 $w=3.38e-07 $l=1.8e-07 $layer=LI1_cond $X=0.72 $Y=0.95
+ $X2=0.72 $Y2=1.13
r226 86 112 26.2773 $w=3.21e-07 $l=1.75e-07 $layer=POLY_cond $X=6.96 $Y=1.515
+ $X2=7.135 $Y2=1.515
r227 86 110 38.2897 $w=3.21e-07 $l=2.55e-07 $layer=POLY_cond $X=6.96 $Y=1.515
+ $X2=6.705 $Y2=1.515
r228 85 86 96.8533 $w=1.7e-07 $l=2.55e-07 $layer=licon1_POLY $count=1 $X=6.96
+ $Y=1.515 $X2=6.96 $Y2=1.515
r229 83 109 42.7944 $w=3.21e-07 $l=2.85e-07 $layer=POLY_cond $X=6.28 $Y=1.515
+ $X2=6.565 $Y2=1.515
r230 83 107 11.2617 $w=3.21e-07 $l=7.5e-08 $layer=POLY_cond $X=6.28 $Y=1.515
+ $X2=6.205 $Y2=1.515
r231 82 85 23.7473 $w=3.28e-07 $l=6.8e-07 $layer=LI1_cond $X=6.28 $Y=1.515
+ $X2=6.96 $Y2=1.515
r232 82 83 96.8533 $w=1.7e-07 $l=2.55e-07 $layer=licon1_POLY $count=1 $X=6.28
+ $Y=1.515 $X2=6.28 $Y2=1.515
r233 80 82 4.71454 $w=3.28e-07 $l=1.35e-07 $layer=LI1_cond $X=6.145 $Y=1.515
+ $X2=6.28 $Y2=1.515
r234 78 80 7.76618 $w=3.3e-07 $l=2.03101e-07 $layer=LI1_cond $X=6.06 $Y=1.68
+ $X2=6.145 $Y2=1.515
r235 78 79 17.615 $w=1.68e-07 $l=2.7e-07 $layer=LI1_cond $X=6.06 $Y=1.68
+ $X2=6.06 $Y2=1.95
r236 76 104 4.62375 $w=1.7e-07 $l=1.65e-07 $layer=LI1_cond $X=4.22 $Y=2.99
+ $X2=4.385 $Y2=2.99
r237 76 77 43.7112 $w=1.68e-07 $l=6.7e-07 $layer=LI1_cond $X=4.22 $Y=2.99
+ $X2=3.55 $Y2=2.99
r238 75 100 8.61065 $w=1.7e-07 $l=1.65e-07 $layer=LI1_cond $X=3.55 $Y=2.035
+ $X2=3.385 $Y2=2.035
r239 74 79 6.81649 $w=1.7e-07 $l=1.20208e-07 $layer=LI1_cond $X=5.975 $Y=2.035
+ $X2=6.06 $Y2=1.95
r240 74 75 158.209 $w=1.68e-07 $l=2.425e-06 $layer=LI1_cond $X=5.975 $Y=2.035
+ $X2=3.55 $Y2=2.035
r241 71 77 7.76618 $w=1.7e-07 $l=2.03101e-07 $layer=LI1_cond $X=3.385 $Y=2.905
+ $X2=3.55 $Y2=2.99
r242 71 73 3.14303 $w=3.28e-07 $l=9e-08 $layer=LI1_cond $X=3.385 $Y=2.905
+ $X2=3.385 $Y2=2.815
r243 70 100 0.89609 $w=3.3e-07 $l=8.5e-08 $layer=LI1_cond $X=3.385 $Y=2.12
+ $X2=3.385 $Y2=2.035
r244 70 73 24.2711 $w=3.28e-07 $l=6.95e-07 $layer=LI1_cond $X=3.385 $Y=2.12
+ $X2=3.385 $Y2=2.815
r245 69 98 8.61065 $w=1.7e-07 $l=1.67481e-07 $layer=LI1_cond $X=2.48 $Y=2.035
+ $X2=2.315 $Y2=2.03
r246 68 100 8.61065 $w=1.7e-07 $l=1.65e-07 $layer=LI1_cond $X=3.22 $Y=2.035
+ $X2=3.385 $Y2=2.035
r247 68 69 48.2781 $w=1.68e-07 $l=7.4e-07 $layer=LI1_cond $X=3.22 $Y=2.035
+ $X2=2.48 $Y2=2.035
r248 65 96 8.61065 $w=1.7e-07 $l=1.65e-07 $layer=LI1_cond $X=1.445 $Y=2.035
+ $X2=1.28 $Y2=2.035
r249 64 98 8.61065 $w=1.7e-07 $l=1.67481e-07 $layer=LI1_cond $X=2.15 $Y=2.035
+ $X2=2.315 $Y2=2.03
r250 64 65 45.9947 $w=1.68e-07 $l=7.05e-07 $layer=LI1_cond $X=2.15 $Y=2.035
+ $X2=1.445 $Y2=2.035
r251 61 94 5.16603 $w=1.7e-07 $l=8.5e-08 $layer=LI1_cond $X=0.89 $Y=2.035
+ $X2=0.805 $Y2=2.035
r252 60 96 8.61065 $w=1.7e-07 $l=1.65e-07 $layer=LI1_cond $X=1.115 $Y=2.035
+ $X2=1.28 $Y2=2.035
r253 60 61 14.6791 $w=1.68e-07 $l=2.25e-07 $layer=LI1_cond $X=1.115 $Y=2.035
+ $X2=0.89 $Y2=2.035
r254 59 94 1.34256 $w=1.7e-07 $l=8.5e-08 $layer=LI1_cond $X=0.805 $Y=1.95
+ $X2=0.805 $Y2=2.035
r255 59 93 53.4973 $w=1.68e-07 $l=8.2e-07 $layer=LI1_cond $X=0.805 $Y=1.95
+ $X2=0.805 $Y2=1.13
r256 57 89 5.12568 $w=1.7e-07 $l=1.65e-07 $layer=LI1_cond $X=0.445 $Y=2.035
+ $X2=0.28 $Y2=2.035
r257 56 94 5.16603 $w=1.7e-07 $l=8.5e-08 $layer=LI1_cond $X=0.72 $Y=2.035
+ $X2=0.805 $Y2=2.035
r258 56 57 17.9412 $w=1.68e-07 $l=2.75e-07 $layer=LI1_cond $X=0.72 $Y=2.035
+ $X2=0.445 $Y2=2.035
r259 49 53 18.8402 $w=1.65e-07 $l=8.12404e-08 $layer=POLY_cond $X=7.605 $Y=1.5
+ $X2=7.592 $Y2=1.425
r260 49 51 349.839 $w=1.8e-07 $l=9e-07 $layer=POLY_cond $X=7.605 $Y=1.5
+ $X2=7.605 $Y2=2.4
r261 45 53 18.8402 $w=1.65e-07 $l=8.74643e-08 $layer=POLY_cond $X=7.565 $Y=1.35
+ $X2=7.592 $Y2=1.425
r262 45 47 312.787 $w=1.5e-07 $l=6.1e-07 $layer=POLY_cond $X=7.565 $Y=1.35
+ $X2=7.565 $Y2=0.74
r263 44 113 27.2915 $w=3.21e-07 $l=1.27279e-07 $layer=POLY_cond $X=7.245
+ $Y=1.425 $X2=7.155 $Y2=1.515
r264 43 53 6.66866 $w=1.5e-07 $l=1.02e-07 $layer=POLY_cond $X=7.49 $Y=1.425
+ $X2=7.592 $Y2=1.425
r265 43 44 125.628 $w=1.5e-07 $l=2.45e-07 $layer=POLY_cond $X=7.49 $Y=1.425
+ $X2=7.245 $Y2=1.425
r266 39 113 16.2883 $w=1.8e-07 $l=1.65e-07 $layer=POLY_cond $X=7.155 $Y=1.68
+ $X2=7.155 $Y2=1.515
r267 39 41 279.871 $w=1.8e-07 $l=7.2e-07 $layer=POLY_cond $X=7.155 $Y=1.68
+ $X2=7.155 $Y2=2.4
r268 35 112 20.5661 $w=1.5e-07 $l=1.65e-07 $layer=POLY_cond $X=7.135 $Y=1.35
+ $X2=7.135 $Y2=1.515
r269 35 37 312.787 $w=1.5e-07 $l=6.1e-07 $layer=POLY_cond $X=7.135 $Y=1.35
+ $X2=7.135 $Y2=0.74
r270 31 110 16.2883 $w=1.8e-07 $l=1.65e-07 $layer=POLY_cond $X=6.705 $Y=1.68
+ $X2=6.705 $Y2=1.515
r271 31 33 279.871 $w=1.8e-07 $l=7.2e-07 $layer=POLY_cond $X=6.705 $Y=1.68
+ $X2=6.705 $Y2=2.4
r272 27 109 20.5661 $w=1.5e-07 $l=1.65e-07 $layer=POLY_cond $X=6.565 $Y=1.35
+ $X2=6.565 $Y2=1.515
r273 27 29 312.787 $w=1.5e-07 $l=6.1e-07 $layer=POLY_cond $X=6.565 $Y=1.35
+ $X2=6.565 $Y2=0.74
r274 23 107 16.2883 $w=1.8e-07 $l=1.65e-07 $layer=POLY_cond $X=6.205 $Y=1.68
+ $X2=6.205 $Y2=1.515
r275 23 25 279.871 $w=1.8e-07 $l=7.2e-07 $layer=POLY_cond $X=6.205 $Y=1.68
+ $X2=6.205 $Y2=2.4
r276 19 106 20.5661 $w=1.5e-07 $l=1.65e-07 $layer=POLY_cond $X=6.135 $Y=1.35
+ $X2=6.135 $Y2=1.515
r277 19 21 312.787 $w=1.5e-07 $l=6.1e-07 $layer=POLY_cond $X=6.135 $Y=1.35
+ $X2=6.135 $Y2=0.74
r278 6 102 600 $w=1.7e-07 $l=9.1e-07 $layer=licon1_PDIFF $count=1 $X=4.25
+ $Y=1.96 $X2=4.385 $Y2=2.805
r279 5 100 300 $w=1.7e-07 $l=2.87228e-07 $layer=licon1_PDIFF $count=2 $X=3.165
+ $Y=1.96 $X2=3.385 $Y2=2.115
r280 5 73 600 $w=1.7e-07 $l=9.5871e-07 $layer=licon1_PDIFF $count=1 $X=3.165
+ $Y=1.96 $X2=3.385 $Y2=2.815
r281 4 98 300 $w=1.7e-07 $l=2.83373e-07 $layer=licon1_PDIFF $count=2 $X=2.095
+ $Y=1.96 $X2=2.315 $Y2=2.105
r282 3 96 300 $w=1.7e-07 $l=2.12014e-07 $layer=licon1_PDIFF $count=2 $X=1.145
+ $Y=1.96 $X2=1.28 $Y2=2.115
r283 2 89 300 $w=1.7e-07 $l=2.15639e-07 $layer=licon1_PDIFF $count=2 $X=0.135
+ $Y=1.96 $X2=0.28 $Y2=2.115
r284 1 91 182 $w=1.7e-07 $l=6.4622e-07 $layer=licon1_NDIFF $count=1 $X=0.575
+ $Y=0.37 $X2=0.715 $Y2=0.95
.ends

.subckt PM_SKY130_FD_SC_MS__O2111A_4%VPWR 1 2 3 4 5 6 7 24 26 30 34 38 42 46 48
+ 50 55 56 58 59 60 62 77 81 86 92 95 98 101 105
c122 1 0 1.9161e-19 $X=0.595 $Y=1.96
r123 104 105 9.3 $w=1.7e-07 $l=1.7e-07 $layer=mcon $count=1 $X=7.92 $Y=3.33
+ $X2=7.92 $Y2=3.33
r124 101 102 9.3 $w=1.7e-07 $l=1.7e-07 $layer=mcon $count=1 $X=6.96 $Y=3.33
+ $X2=6.96 $Y2=3.33
r125 98 99 9.3 $w=1.7e-07 $l=1.7e-07 $layer=mcon $count=1 $X=6 $Y=3.33 $X2=6
+ $Y2=3.33
r126 95 96 4.65 $w=1.7e-07 $l=3.4e-07 $layer=mcon $count=2 $X=1.68 $Y=3.33
+ $X2=1.68 $Y2=3.33
r127 93 96 0.267585 $w=4.9e-07 $l=9.6e-07 $layer=MET1_cond $X=0.72 $Y=3.33
+ $X2=1.68 $Y2=3.33
r128 92 93 9.3 $w=1.7e-07 $l=1.7e-07 $layer=mcon $count=1 $X=0.72 $Y=3.33
+ $X2=0.72 $Y2=3.33
r129 90 105 0.133793 $w=4.9e-07 $l=4.8e-07 $layer=MET1_cond $X=7.44 $Y=3.33
+ $X2=7.92 $Y2=3.33
r130 90 102 0.133793 $w=4.9e-07 $l=4.8e-07 $layer=MET1_cond $X=7.44 $Y=3.33
+ $X2=6.96 $Y2=3.33
r131 89 90 9.3 $w=1.7e-07 $l=1.7e-07 $layer=mcon $count=1 $X=7.44 $Y=3.33
+ $X2=7.44 $Y2=3.33
r132 87 101 8.61065 $w=1.7e-07 $l=1.65e-07 $layer=LI1_cond $X=7.095 $Y=3.33
+ $X2=6.93 $Y2=3.33
r133 87 89 22.508 $w=1.68e-07 $l=3.45e-07 $layer=LI1_cond $X=7.095 $Y=3.33
+ $X2=7.44 $Y2=3.33
r134 86 104 4.73651 $w=1.7e-07 $l=2.22e-07 $layer=LI1_cond $X=7.715 $Y=3.33
+ $X2=7.937 $Y2=3.33
r135 86 89 17.9412 $w=1.68e-07 $l=2.75e-07 $layer=LI1_cond $X=7.715 $Y=3.33
+ $X2=7.44 $Y2=3.33
r136 85 102 0.133793 $w=4.9e-07 $l=4.8e-07 $layer=MET1_cond $X=6.48 $Y=3.33
+ $X2=6.96 $Y2=3.33
r137 85 99 0.133793 $w=4.9e-07 $l=4.8e-07 $layer=MET1_cond $X=6.48 $Y=3.33 $X2=6
+ $Y2=3.33
r138 84 85 9.3 $w=1.7e-07 $l=1.7e-07 $layer=mcon $count=1 $X=6.48 $Y=3.33
+ $X2=6.48 $Y2=3.33
r139 82 98 8.61065 $w=1.7e-07 $l=1.65e-07 $layer=LI1_cond $X=6.145 $Y=3.33
+ $X2=5.98 $Y2=3.33
r140 82 84 21.8556 $w=1.68e-07 $l=3.35e-07 $layer=LI1_cond $X=6.145 $Y=3.33
+ $X2=6.48 $Y2=3.33
r141 81 101 8.61065 $w=1.7e-07 $l=1.65e-07 $layer=LI1_cond $X=6.765 $Y=3.33
+ $X2=6.93 $Y2=3.33
r142 81 84 18.5936 $w=1.68e-07 $l=2.85e-07 $layer=LI1_cond $X=6.765 $Y=3.33
+ $X2=6.48 $Y2=3.33
r143 80 99 0.133793 $w=4.9e-07 $l=4.8e-07 $layer=MET1_cond $X=5.52 $Y=3.33 $X2=6
+ $Y2=3.33
r144 79 80 4.65 $w=1.7e-07 $l=3.4e-07 $layer=mcon $count=2 $X=5.52 $Y=3.33
+ $X2=5.52 $Y2=3.33
r145 77 98 8.61065 $w=1.7e-07 $l=1.65e-07 $layer=LI1_cond $X=5.815 $Y=3.33
+ $X2=5.98 $Y2=3.33
r146 77 79 19.246 $w=1.68e-07 $l=2.95e-07 $layer=LI1_cond $X=5.815 $Y=3.33
+ $X2=5.52 $Y2=3.33
r147 76 80 0.267585 $w=4.9e-07 $l=9.6e-07 $layer=MET1_cond $X=4.56 $Y=3.33
+ $X2=5.52 $Y2=3.33
r148 75 76 4.65 $w=1.7e-07 $l=3.4e-07 $layer=mcon $count=2 $X=4.56 $Y=3.33
+ $X2=4.56 $Y2=3.33
r149 72 75 93.9465 $w=1.68e-07 $l=1.44e-06 $layer=LI1_cond $X=3.12 $Y=3.33
+ $X2=4.56 $Y2=3.33
r150 72 73 4.65 $w=1.7e-07 $l=3.4e-07 $layer=mcon $count=2 $X=3.12 $Y=3.33
+ $X2=3.12 $Y2=3.33
r151 70 73 0.133793 $w=4.9e-07 $l=4.8e-07 $layer=MET1_cond $X=2.64 $Y=3.33
+ $X2=3.12 $Y2=3.33
r152 70 96 0.267585 $w=4.9e-07 $l=9.6e-07 $layer=MET1_cond $X=2.64 $Y=3.33
+ $X2=1.68 $Y2=3.33
r153 69 70 4.65 $w=1.7e-07 $l=3.4e-07 $layer=mcon $count=2 $X=2.64 $Y=3.33
+ $X2=2.64 $Y2=3.33
r154 67 95 8.61065 $w=1.7e-07 $l=1.65e-07 $layer=LI1_cond $X=1.945 $Y=3.33
+ $X2=1.78 $Y2=3.33
r155 67 69 45.3422 $w=1.68e-07 $l=6.95e-07 $layer=LI1_cond $X=1.945 $Y=3.33
+ $X2=2.64 $Y2=3.33
r156 65 93 0.133793 $w=4.9e-07 $l=4.8e-07 $layer=MET1_cond $X=0.24 $Y=3.33
+ $X2=0.72 $Y2=3.33
r157 64 65 9.3 $w=1.7e-07 $l=1.7e-07 $layer=mcon $count=1 $X=0.24 $Y=3.33
+ $X2=0.24 $Y2=3.33
r158 62 92 8.61065 $w=1.7e-07 $l=1.65e-07 $layer=LI1_cond $X=0.615 $Y=3.33
+ $X2=0.78 $Y2=3.33
r159 62 64 24.4652 $w=1.68e-07 $l=3.75e-07 $layer=LI1_cond $X=0.615 $Y=3.33
+ $X2=0.24 $Y2=3.33
r160 60 76 0.133793 $w=4.9e-07 $l=4.8e-07 $layer=MET1_cond $X=4.08 $Y=3.33
+ $X2=4.56 $Y2=3.33
r161 60 73 0.267585 $w=4.9e-07 $l=9.6e-07 $layer=MET1_cond $X=4.08 $Y=3.33
+ $X2=3.12 $Y2=3.33
r162 58 75 14.3529 $w=1.68e-07 $l=2.2e-07 $layer=LI1_cond $X=4.78 $Y=3.33
+ $X2=4.56 $Y2=3.33
r163 58 59 8.61065 $w=1.7e-07 $l=1.65e-07 $layer=LI1_cond $X=4.78 $Y=3.33
+ $X2=4.945 $Y2=3.33
r164 57 79 26.7487 $w=1.68e-07 $l=4.1e-07 $layer=LI1_cond $X=5.11 $Y=3.33
+ $X2=5.52 $Y2=3.33
r165 57 59 8.61065 $w=1.7e-07 $l=1.65e-07 $layer=LI1_cond $X=5.11 $Y=3.33
+ $X2=4.945 $Y2=3.33
r166 55 69 2.93583 $w=1.68e-07 $l=4.5e-08 $layer=LI1_cond $X=2.685 $Y=3.33
+ $X2=2.64 $Y2=3.33
r167 55 56 8.61065 $w=1.7e-07 $l=1.65e-07 $layer=LI1_cond $X=2.685 $Y=3.33
+ $X2=2.85 $Y2=3.33
r168 54 72 6.85027 $w=1.68e-07 $l=1.05e-07 $layer=LI1_cond $X=3.015 $Y=3.33
+ $X2=3.12 $Y2=3.33
r169 54 56 8.61065 $w=1.7e-07 $l=1.65e-07 $layer=LI1_cond $X=3.015 $Y=3.33
+ $X2=2.85 $Y2=3.33
r170 50 53 28.9857 $w=3.28e-07 $l=8.3e-07 $layer=LI1_cond $X=7.88 $Y=1.985
+ $X2=7.88 $Y2=2.815
r171 48 104 3.02966 $w=3.3e-07 $l=1.09864e-07 $layer=LI1_cond $X=7.88 $Y=3.245
+ $X2=7.937 $Y2=3.33
r172 48 53 15.0167 $w=3.28e-07 $l=4.3e-07 $layer=LI1_cond $X=7.88 $Y=3.245
+ $X2=7.88 $Y2=2.815
r173 44 101 0.89609 $w=3.3e-07 $l=8.5e-08 $layer=LI1_cond $X=6.93 $Y=3.245
+ $X2=6.93 $Y2=3.33
r174 44 46 28.2872 $w=3.28e-07 $l=8.1e-07 $layer=LI1_cond $X=6.93 $Y=3.245
+ $X2=6.93 $Y2=2.435
r175 40 98 0.89609 $w=3.3e-07 $l=8.5e-08 $layer=LI1_cond $X=5.98 $Y=3.245
+ $X2=5.98 $Y2=3.33
r176 40 42 27.5888 $w=3.28e-07 $l=7.9e-07 $layer=LI1_cond $X=5.98 $Y=3.245
+ $X2=5.98 $Y2=2.455
r177 36 59 0.89609 $w=3.3e-07 $l=8.5e-08 $layer=LI1_cond $X=4.945 $Y=3.245
+ $X2=4.945 $Y2=3.33
r178 36 38 15.3659 $w=3.28e-07 $l=4.4e-07 $layer=LI1_cond $X=4.945 $Y=3.245
+ $X2=4.945 $Y2=2.805
r179 32 56 0.89609 $w=3.3e-07 $l=8.5e-08 $layer=LI1_cond $X=2.85 $Y=3.245
+ $X2=2.85 $Y2=3.33
r180 32 34 26.7157 $w=3.28e-07 $l=7.65e-07 $layer=LI1_cond $X=2.85 $Y=3.245
+ $X2=2.85 $Y2=2.48
r181 28 95 0.89609 $w=3.3e-07 $l=8.5e-08 $layer=LI1_cond $X=1.78 $Y=3.245
+ $X2=1.78 $Y2=3.33
r182 28 30 26.7157 $w=3.28e-07 $l=7.65e-07 $layer=LI1_cond $X=1.78 $Y=3.245
+ $X2=1.78 $Y2=2.48
r183 27 92 8.61065 $w=1.7e-07 $l=1.65e-07 $layer=LI1_cond $X=0.945 $Y=3.33
+ $X2=0.78 $Y2=3.33
r184 26 95 8.61065 $w=1.7e-07 $l=1.65e-07 $layer=LI1_cond $X=1.615 $Y=3.33
+ $X2=1.78 $Y2=3.33
r185 26 27 43.7112 $w=1.68e-07 $l=6.7e-07 $layer=LI1_cond $X=1.615 $Y=3.33
+ $X2=0.945 $Y2=3.33
r186 22 92 0.89609 $w=3.3e-07 $l=8.5e-08 $layer=LI1_cond $X=0.78 $Y=3.245
+ $X2=0.78 $Y2=3.33
r187 22 24 26.7157 $w=3.28e-07 $l=7.65e-07 $layer=LI1_cond $X=0.78 $Y=3.245
+ $X2=0.78 $Y2=2.48
r188 7 53 400 $w=1.7e-07 $l=1.06348e-06 $layer=licon1_PDIFF $count=1 $X=7.695
+ $Y=1.84 $X2=7.88 $Y2=2.815
r189 7 50 400 $w=1.7e-07 $l=2.47083e-07 $layer=licon1_PDIFF $count=1 $X=7.695
+ $Y=1.84 $X2=7.88 $Y2=1.985
r190 6 46 300 $w=1.7e-07 $l=6.59052e-07 $layer=licon1_PDIFF $count=2 $X=6.795
+ $Y=1.84 $X2=6.93 $Y2=2.435
r191 5 42 300 $w=1.7e-07 $l=5.94916e-07 $layer=licon1_PDIFF $count=2 $X=5.76
+ $Y=1.96 $X2=5.98 $Y2=2.455
r192 4 38 600 $w=1.7e-07 $l=9.14631e-07 $layer=licon1_PDIFF $count=1 $X=4.8
+ $Y=1.96 $X2=4.945 $Y2=2.805
r193 3 34 600 $w=1.7e-07 $l=5.83609e-07 $layer=licon1_PDIFF $count=1 $X=2.715
+ $Y=1.96 $X2=2.85 $Y2=2.48
r194 2 30 600 $w=1.7e-07 $l=6.05475e-07 $layer=licon1_PDIFF $count=1 $X=1.595
+ $Y=1.96 $X2=1.78 $Y2=2.48
r195 1 24 600 $w=1.7e-07 $l=6.05475e-07 $layer=licon1_PDIFF $count=1 $X=0.595
+ $Y=1.96 $X2=0.78 $Y2=2.48
.ends

.subckt PM_SKY130_FD_SC_MS__O2111A_4%A_750_392# 1 2 7 11 17
c23 17 0 1.44056e-19 $X=5.445 $Y=2.455
r24 11 14 4.71454 $w=3.28e-07 $l=1.35e-07 $layer=LI1_cond $X=3.885 $Y=2.375
+ $X2=3.885 $Y2=2.51
r25 8 11 4.62375 $w=1.7e-07 $l=1.65e-07 $layer=LI1_cond $X=4.05 $Y=2.375
+ $X2=3.885 $Y2=2.375
r26 7 17 5.12568 $w=1.7e-07 $l=1.65e-07 $layer=LI1_cond $X=5.28 $Y=2.375
+ $X2=5.445 $Y2=2.375
r27 7 8 80.246 $w=1.68e-07 $l=1.23e-06 $layer=LI1_cond $X=5.28 $Y=2.375 $X2=4.05
+ $Y2=2.375
r28 2 17 300 $w=1.7e-07 $l=5.58435e-07 $layer=licon1_PDIFF $count=2 $X=5.31
+ $Y=1.96 $X2=5.445 $Y2=2.455
r29 1 14 600 $w=1.7e-07 $l=6.138e-07 $layer=licon1_PDIFF $count=1 $X=3.75
+ $Y=1.96 $X2=3.885 $Y2=2.51
.ends

.subckt PM_SKY130_FD_SC_MS__O2111A_4%X 1 2 3 4 15 17 19 21 22 23 27 30 33 35 37
+ 38 41 43 46
c80 30 0 5.23076e-20 $X=7.42 $Y=1.85
c81 22 0 1.93862e-19 $X=6.515 $Y=1.095
c82 15 0 1.92524e-19 $X=6.35 $Y=0.515
r83 45 46 9.26965 $w=2.28e-07 $l=1.85e-07 $layer=LI1_cond $X=7.92 $Y=1.48
+ $X2=7.92 $Y2=1.295
r84 44 46 5.76222 $w=2.28e-07 $l=1.15e-07 $layer=LI1_cond $X=7.92 $Y=1.18
+ $X2=7.92 $Y2=1.295
r85 37 45 7.01789 $w=1.7e-07 $l=1.51658e-07 $layer=LI1_cond $X=7.805 $Y=1.565
+ $X2=7.92 $Y2=1.48
r86 37 38 16.9626 $w=1.68e-07 $l=2.6e-07 $layer=LI1_cond $X=7.805 $Y=1.565
+ $X2=7.545 $Y2=1.565
r87 36 41 8.61065 $w=1.7e-07 $l=1.65e-07 $layer=LI1_cond $X=7.515 $Y=1.095
+ $X2=7.35 $Y2=1.095
r88 35 44 7.01789 $w=1.7e-07 $l=1.51658e-07 $layer=LI1_cond $X=7.805 $Y=1.095
+ $X2=7.92 $Y2=1.18
r89 35 36 18.9198 $w=1.68e-07 $l=2.9e-07 $layer=LI1_cond $X=7.805 $Y=1.095
+ $X2=7.515 $Y2=1.095
r90 31 43 6.46576 $w=2.5e-07 $l=1.65e-07 $layer=LI1_cond $X=7.42 $Y=2.18
+ $X2=7.42 $Y2=2.015
r91 31 33 10.1415 $w=2.48e-07 $l=2.2e-07 $layer=LI1_cond $X=7.42 $Y=2.18
+ $X2=7.42 $Y2=2.4
r92 30 43 6.46576 $w=2.5e-07 $l=1.65e-07 $layer=LI1_cond $X=7.42 $Y=1.85
+ $X2=7.42 $Y2=2.015
r93 29 38 7.14316 $w=1.7e-07 $l=1.62019e-07 $layer=LI1_cond $X=7.42 $Y=1.65
+ $X2=7.545 $Y2=1.565
r94 29 30 9.21954 $w=2.48e-07 $l=2e-07 $layer=LI1_cond $X=7.42 $Y=1.65 $X2=7.42
+ $Y2=1.85
r95 25 41 0.89609 $w=3.3e-07 $l=8.5e-08 $layer=LI1_cond $X=7.35 $Y=1.01 $X2=7.35
+ $Y2=1.095
r96 25 27 17.2866 $w=3.28e-07 $l=4.95e-07 $layer=LI1_cond $X=7.35 $Y=1.01
+ $X2=7.35 $Y2=0.515
r97 24 40 3.13803 $w=3.3e-07 $l=1.38e-07 $layer=LI1_cond $X=6.59 $Y=2.015
+ $X2=6.452 $Y2=2.015
r98 23 43 0.364692 $w=3.3e-07 $l=1.25e-07 $layer=LI1_cond $X=7.295 $Y=2.015
+ $X2=7.42 $Y2=2.015
r99 23 24 24.6204 $w=3.28e-07 $l=7.05e-07 $layer=LI1_cond $X=7.295 $Y=2.015
+ $X2=6.59 $Y2=2.015
r100 21 41 8.61065 $w=1.7e-07 $l=1.65e-07 $layer=LI1_cond $X=7.185 $Y=1.095
+ $X2=7.35 $Y2=1.095
r101 21 22 43.7112 $w=1.68e-07 $l=6.7e-07 $layer=LI1_cond $X=7.185 $Y=1.095
+ $X2=6.515 $Y2=1.095
r102 17 40 3.75199 $w=2.75e-07 $l=1.65e-07 $layer=LI1_cond $X=6.452 $Y=2.18
+ $X2=6.452 $Y2=2.015
r103 17 19 9.21954 $w=2.73e-07 $l=2.2e-07 $layer=LI1_cond $X=6.452 $Y=2.18
+ $X2=6.452 $Y2=2.4
r104 13 22 7.76618 $w=1.7e-07 $l=2.03101e-07 $layer=LI1_cond $X=6.35 $Y=1.01
+ $X2=6.515 $Y2=1.095
r105 13 15 17.2866 $w=3.28e-07 $l=4.95e-07 $layer=LI1_cond $X=6.35 $Y=1.01
+ $X2=6.35 $Y2=0.515
r106 4 43 600 $w=1.7e-07 $l=2.01494e-07 $layer=licon1_PDIFF $count=1 $X=7.245
+ $Y=1.84 $X2=7.38 $Y2=1.985
r107 4 33 300 $w=1.7e-07 $l=6.23859e-07 $layer=licon1_PDIFF $count=2 $X=7.245
+ $Y=1.84 $X2=7.38 $Y2=2.4
r108 3 40 600 $w=1.7e-07 $l=2.5807e-07 $layer=licon1_PDIFF $count=1 $X=6.295
+ $Y=1.84 $X2=6.48 $Y2=2.015
r109 3 19 300 $w=1.7e-07 $l=6.4591e-07 $layer=licon1_PDIFF $count=2 $X=6.295
+ $Y=1.84 $X2=6.48 $Y2=2.4
r110 2 27 91 $w=1.7e-07 $l=2.03286e-07 $layer=licon1_NDIFF $count=2 $X=7.21
+ $Y=0.37 $X2=7.35 $Y2=0.515
r111 1 15 91 $w=1.7e-07 $l=2.03286e-07 $layer=licon1_NDIFF $count=2 $X=6.21
+ $Y=0.37 $X2=6.35 $Y2=0.515
.ends

.subckt PM_SKY130_FD_SC_MS__O2111A_4%A_27_74# 1 2 3 10 12 14 18 25 27 28
r39 27 28 8.53353 $w=2.83e-07 $l=1.65e-07 $layer=LI1_cond $X=2.085 $Y=0.397
+ $X2=1.92 $Y2=0.397
r40 21 25 3.6114 $w=2.57e-07 $l=1.22327e-07 $layer=LI1_cond $X=1.23 $Y=0.34
+ $X2=1.145 $Y2=0.427
r41 21 28 45.016 $w=1.68e-07 $l=6.9e-07 $layer=LI1_cond $X=1.23 $Y=0.34 $X2=1.92
+ $Y2=0.34
r42 16 25 2.87242 $w=1.7e-07 $l=1.73e-07 $layer=LI1_cond $X=1.145 $Y=0.6
+ $X2=1.145 $Y2=0.427
r43 16 18 23.8128 $w=1.68e-07 $l=3.65e-07 $layer=LI1_cond $X=1.145 $Y=0.6
+ $X2=1.145 $Y2=0.965
r44 15 23 3.02949 $w=3.45e-07 $l=1.33e-07 $layer=LI1_cond $X=0.38 $Y=0.427
+ $X2=0.247 $Y2=0.427
r45 14 25 3.6114 $w=2.57e-07 $l=8.5e-08 $layer=LI1_cond $X=1.06 $Y=0.427
+ $X2=1.145 $Y2=0.427
r46 14 15 22.7148 $w=3.43e-07 $l=6.8e-07 $layer=LI1_cond $X=1.06 $Y=0.427
+ $X2=0.38 $Y2=0.427
r47 10 23 3.94061 $w=2.65e-07 $l=1.73e-07 $layer=LI1_cond $X=0.247 $Y=0.6
+ $X2=0.247 $Y2=0.427
r48 10 12 15.2209 $w=2.63e-07 $l=3.5e-07 $layer=LI1_cond $X=0.247 $Y=0.6
+ $X2=0.247 $Y2=0.95
r49 3 27 182 $w=1.7e-07 $l=2.22486e-07 $layer=licon1_NDIFF $count=1 $X=1.865
+ $Y=0.37 $X2=2.085 $Y2=0.375
r50 2 25 182 $w=1.7e-07 $l=2.03286e-07 $layer=licon1_NDIFF $count=1 $X=1.005
+ $Y=0.37 $X2=1.145 $Y2=0.515
r51 2 18 182 $w=1.7e-07 $l=6.61306e-07 $layer=licon1_NDIFF $count=1 $X=1.005
+ $Y=0.37 $X2=1.145 $Y2=0.965
r52 1 23 182 $w=1.7e-07 $l=2.05061e-07 $layer=licon1_NDIFF $count=1 $X=0.135
+ $Y=0.37 $X2=0.28 $Y2=0.515
r53 1 12 182 $w=1.7e-07 $l=6.4846e-07 $layer=licon1_NDIFF $count=1 $X=0.135
+ $Y=0.37 $X2=0.28 $Y2=0.95
.ends

.subckt PM_SKY130_FD_SC_MS__O2111A_4%A_287_74# 1 2 7 12 14
c29 14 0 1.44963e-19 $X=3.04 $Y=0.7
r30 14 16 4.37928 $w=2.48e-07 $l=9.5e-08 $layer=LI1_cond $X=3 $Y=0.7 $X2=3
+ $Y2=0.795
r31 10 12 9.7361 $w=5.33e-07 $l=1.65e-07 $layer=LI1_cond $X=1.575 $Y=0.862
+ $X2=1.74 $Y2=0.862
r32 7 16 2.99516 $w=1.7e-07 $l=1.25e-07 $layer=LI1_cond $X=2.875 $Y=0.795 $X2=3
+ $Y2=0.795
r33 7 12 74.0481 $w=1.68e-07 $l=1.135e-06 $layer=LI1_cond $X=2.875 $Y=0.795
+ $X2=1.74 $Y2=0.795
r34 2 14 182 $w=1.7e-07 $l=2.19089e-07 $layer=licon1_NDIFF $count=1 $X=2.9
+ $Y=0.54 $X2=3.04 $Y2=0.7
r35 1 10 182 $w=1.7e-07 $l=5.55608e-07 $layer=licon1_NDIFF $count=1 $X=1.435
+ $Y=0.37 $X2=1.575 $Y2=0.86
.ends

.subckt PM_SKY130_FD_SC_MS__O2111A_4%A_477_198# 1 2 3 4 13 17 21 23 27 29 33 35
+ 36 37
c64 35 0 9.25343e-20 $X=2.775 $Y=1.175
r65 31 33 38.8182 $w=1.68e-07 $l=5.95e-07 $layer=LI1_cond $X=5.42 $Y=1.11
+ $X2=5.42 $Y2=0.515
r66 30 37 8.61065 $w=1.7e-07 $l=1.65e-07 $layer=LI1_cond $X=4.565 $Y=1.195
+ $X2=4.4 $Y2=1.195
r67 29 31 6.81649 $w=1.7e-07 $l=1.20208e-07 $layer=LI1_cond $X=5.335 $Y=1.195
+ $X2=5.42 $Y2=1.11
r68 29 30 50.2353 $w=1.68e-07 $l=7.7e-07 $layer=LI1_cond $X=5.335 $Y=1.195
+ $X2=4.565 $Y2=1.195
r69 25 37 0.89609 $w=3.3e-07 $l=8.5e-08 $layer=LI1_cond $X=4.4 $Y=1.11 $X2=4.4
+ $Y2=1.195
r70 25 27 14.8421 $w=3.28e-07 $l=4.25e-07 $layer=LI1_cond $X=4.4 $Y=1.11 $X2=4.4
+ $Y2=0.685
r71 24 36 6.19399 $w=2e-07 $l=1.39194e-07 $layer=LI1_cond $X=3.555 $Y=1.195
+ $X2=3.43 $Y2=1.165
r72 23 37 8.61065 $w=1.7e-07 $l=1.65e-07 $layer=LI1_cond $X=4.235 $Y=1.195
+ $X2=4.4 $Y2=1.195
r73 23 24 44.3636 $w=1.68e-07 $l=6.8e-07 $layer=LI1_cond $X=4.235 $Y=1.195
+ $X2=3.555 $Y2=1.195
r74 19 36 0.552779 $w=2.5e-07 $l=1.15e-07 $layer=LI1_cond $X=3.43 $Y=1.05
+ $X2=3.43 $Y2=1.165
r75 19 21 16.8257 $w=2.48e-07 $l=3.65e-07 $layer=LI1_cond $X=3.43 $Y=1.05
+ $X2=3.43 $Y2=0.685
r76 17 36 6.19399 $w=2e-07 $l=1.25e-07 $layer=LI1_cond $X=3.305 $Y=1.165
+ $X2=3.43 $Y2=1.165
r77 17 35 26.5563 $w=2.28e-07 $l=5.3e-07 $layer=LI1_cond $X=3.305 $Y=1.165
+ $X2=2.775 $Y2=1.165
r78 13 35 5.85606 $w=2.48e-07 $l=1.25e-07 $layer=LI1_cond $X=2.65 $Y=1.175
+ $X2=2.775 $Y2=1.175
r79 13 15 3.68782 $w=2.48e-07 $l=8e-08 $layer=LI1_cond $X=2.65 $Y=1.175 $X2=2.57
+ $Y2=1.175
r80 4 33 91 $w=1.7e-07 $l=2.03286e-07 $layer=licon1_NDIFF $count=2 $X=5.28
+ $Y=0.37 $X2=5.42 $Y2=0.515
r81 3 27 91 $w=1.7e-07 $l=2.10357e-07 $layer=licon1_NDIFF $count=2 $X=4.25
+ $Y=0.54 $X2=4.4 $Y2=0.685
r82 2 21 91 $w=1.7e-07 $l=2.03286e-07 $layer=licon1_NDIFF $count=2 $X=3.33
+ $Y=0.54 $X2=3.47 $Y2=0.685
r83 1 15 182 $w=1.7e-07 $l=2.47083e-07 $layer=licon1_NDIFF $count=1 $X=2.385
+ $Y=0.99 $X2=2.57 $Y2=1.135
.ends

.subckt PM_SKY130_FD_SC_MS__O2111A_4%VGND 1 2 3 4 5 18 22 26 30 32 34 37 38 40
+ 41 43 44 45 54 65 70 74
r99 73 74 9.3 $w=1.7e-07 $l=1.7e-07 $layer=mcon $count=1 $X=7.92 $Y=0 $X2=7.92
+ $Y2=0
r100 70 71 9.3 $w=1.7e-07 $l=1.7e-07 $layer=mcon $count=1 $X=5.04 $Y=0 $X2=5.04
+ $Y2=0
r101 68 74 0.133793 $w=4.9e-07 $l=4.8e-07 $layer=MET1_cond $X=7.44 $Y=0 $X2=7.92
+ $Y2=0
r102 67 68 4.65 $w=1.7e-07 $l=3.4e-07 $layer=mcon $count=2 $X=7.44 $Y=0 $X2=7.44
+ $Y2=0
r103 65 73 4.67153 $w=1.7e-07 $l=2.37e-07 $layer=LI1_cond $X=7.685 $Y=0
+ $X2=7.922 $Y2=0
r104 65 67 15.984 $w=1.68e-07 $l=2.45e-07 $layer=LI1_cond $X=7.685 $Y=0 $X2=7.44
+ $Y2=0
r105 64 68 0.267585 $w=4.9e-07 $l=9.6e-07 $layer=MET1_cond $X=6.48 $Y=0 $X2=7.44
+ $Y2=0
r106 63 64 4.65 $w=1.7e-07 $l=3.4e-07 $layer=mcon $count=2 $X=6.48 $Y=0 $X2=6.48
+ $Y2=0
r107 61 64 0.267585 $w=4.9e-07 $l=9.6e-07 $layer=MET1_cond $X=5.52 $Y=0 $X2=6.48
+ $Y2=0
r108 61 71 0.133793 $w=4.9e-07 $l=4.8e-07 $layer=MET1_cond $X=5.52 $Y=0 $X2=5.04
+ $Y2=0
r109 60 61 9.3 $w=1.7e-07 $l=1.7e-07 $layer=mcon $count=1 $X=5.52 $Y=0 $X2=5.52
+ $Y2=0