* File: sky130_fd_sc_ms__ebufn_8.pex.spice
* Created: Wed Sep  2 12:07:52 2020
* Program "Calibre xRC"
* Version "v2018.4_34.26"
* Nominal Temperature: 27C
* Circuit Temperature: 27C
* 
.subckt PM_SKY130_FD_SC_MS__EBUFN_8%A_84_48# 1 2 9 13 17 21 25 29 33 37 41 45 49
+ 53 57 61 65 69 71 76 79 80 81 82 87 90 92 94 96 98 99 101 106 110 130
c276 105 0 6.69633e-20 $X=3.655 $Y=1.485
c277 79 0 8.42804e-20 $X=3.955 $Y=2.05
c278 69 0 1.9142e-19 $X=3.81 $Y=0.74
c279 65 0 1.8687e-19 $X=3.795 $Y=2.4
r280 129 130 2.62292 $w=3.3e-07 $l=1.5e-08 $layer=POLY_cond $X=3.795 $Y=1.485
+ $X2=3.81 $Y2=1.485
r281 126 127 2.62292 $w=3.3e-07 $l=1.5e-08 $layer=POLY_cond $X=3.31 $Y=1.485
+ $X2=3.325 $Y2=1.485
r282 125 126 87.4306 $w=3.3e-07 $l=5e-07 $layer=POLY_cond $X=2.81 $Y=1.485
+ $X2=3.31 $Y2=1.485
r283 124 125 78.6876 $w=3.3e-07 $l=4.5e-07 $layer=POLY_cond $X=2.36 $Y=1.485
+ $X2=2.81 $Y2=1.485
r284 123 124 8.74306 $w=3.3e-07 $l=5e-08 $layer=POLY_cond $X=2.31 $Y=1.485
+ $X2=2.36 $Y2=1.485
r285 122 123 69.9445 $w=3.3e-07 $l=4e-07 $layer=POLY_cond $X=1.91 $Y=1.485
+ $X2=2.31 $Y2=1.485
r286 121 122 17.4861 $w=3.3e-07 $l=1e-07 $layer=POLY_cond $X=1.81 $Y=1.485
+ $X2=1.91 $Y2=1.485
r287 120 121 69.9445 $w=3.3e-07 $l=4e-07 $layer=POLY_cond $X=1.41 $Y=1.485
+ $X2=1.81 $Y2=1.485
r288 119 120 5.24584 $w=3.3e-07 $l=3e-08 $layer=POLY_cond $X=1.38 $Y=1.485
+ $X2=1.41 $Y2=1.485
r289 116 117 6.12014 $w=3.3e-07 $l=3.5e-08 $layer=POLY_cond $X=0.925 $Y=1.485
+ $X2=0.96 $Y2=1.485
r290 115 116 72.5674 $w=3.3e-07 $l=4.15e-07 $layer=POLY_cond $X=0.51 $Y=1.485
+ $X2=0.925 $Y2=1.485
r291 113 115 2.62292 $w=3.3e-07 $l=1.5e-08 $layer=POLY_cond $X=0.495 $Y=1.485
+ $X2=0.51 $Y2=1.485
r292 106 108 11.0909 $w=1.68e-07 $l=1.7e-07 $layer=LI1_cond $X=7.67 $Y=2.135
+ $X2=7.67 $Y2=2.305
r293 104 129 48.0869 $w=3.3e-07 $l=2.75e-07 $layer=POLY_cond $X=3.52 $Y=1.485
+ $X2=3.795 $Y2=1.485
r294 104 127 34.0979 $w=3.3e-07 $l=1.95e-07 $layer=POLY_cond $X=3.52 $Y=1.485
+ $X2=3.325 $Y2=1.485
r295 103 105 7.4145 $w=3.28e-07 $l=1.35e-07 $layer=LI1_cond $X=3.52 $Y=1.485
+ $X2=3.655 $Y2=1.485
r296 103 104 36.32 $w=1.7e-07 $l=6.8e-07 $layer=licon1_POLY $count=4 $X=3.52
+ $Y=1.485 $X2=3.52 $Y2=1.485
r297 100 101 46.3209 $w=1.68e-07 $l=7.1e-07 $layer=LI1_cond $X=10.23 $Y=1.01
+ $X2=10.23 $Y2=1.72
r298 98 101 6.81649 $w=1.7e-07 $l=1.20208e-07 $layer=LI1_cond $X=10.145 $Y=1.805
+ $X2=10.23 $Y2=1.72
r299 98 99 13.0481 $w=1.68e-07 $l=2e-07 $layer=LI1_cond $X=10.145 $Y=1.805
+ $X2=9.945 $Y2=1.805
r300 97 112 4.25188 $w=1.7e-07 $l=1.25e-07 $layer=LI1_cond $X=9.93 $Y=0.925
+ $X2=9.805 $Y2=0.925
r301 96 100 6.81649 $w=1.7e-07 $l=1.20208e-07 $layer=LI1_cond $X=10.145 $Y=0.925
+ $X2=10.23 $Y2=1.01
r302 96 97 14.0267 $w=1.68e-07 $l=2.15e-07 $layer=LI1_cond $X=10.145 $Y=0.925
+ $X2=9.93 $Y2=0.925
r303 92 112 2.89128 $w=2.5e-07 $l=8.5e-08 $layer=LI1_cond $X=9.805 $Y=0.84
+ $X2=9.805 $Y2=0.925
r304 92 94 15.4427 $w=2.48e-07 $l=3.35e-07 $layer=LI1_cond $X=9.805 $Y=0.84
+ $X2=9.805 $Y2=0.505
r305 88 110 3.351 $w=2.8e-07 $l=8.5e-08 $layer=LI1_cond $X=9.805 $Y=2.39
+ $X2=9.805 $Y2=2.305
r306 88 90 17.4924 $w=2.78e-07 $l=4.25e-07 $layer=LI1_cond $X=9.805 $Y=2.39
+ $X2=9.805 $Y2=2.815
r307 85 110 3.351 $w=2.8e-07 $l=8.5e-08 $layer=LI1_cond $X=9.805 $Y=2.22
+ $X2=9.805 $Y2=2.305
r308 85 87 9.67229 $w=2.78e-07 $l=2.35e-07 $layer=LI1_cond $X=9.805 $Y=2.22
+ $X2=9.805 $Y2=1.985
r309 84 99 7.36005 $w=1.7e-07 $l=1.77482e-07 $layer=LI1_cond $X=9.805 $Y=1.89
+ $X2=9.945 $Y2=1.805
r310 84 87 3.91007 $w=2.78e-07 $l=9.5e-08 $layer=LI1_cond $X=9.805 $Y=1.89
+ $X2=9.805 $Y2=1.985
r311 83 108 0.716491 $w=1.7e-07 $l=8.5e-08 $layer=LI1_cond $X=7.755 $Y=2.305
+ $X2=7.67 $Y2=2.305
r312 82 110 3.18746 $w=1.7e-07 $l=1.4e-07 $layer=LI1_cond $X=9.665 $Y=2.305
+ $X2=9.805 $Y2=2.305
r313 82 83 124.61 $w=1.68e-07 $l=1.91e-06 $layer=LI1_cond $X=9.665 $Y=2.305
+ $X2=7.755 $Y2=2.305
r314 80 106 0.716491 $w=1.7e-07 $l=8.5e-08 $layer=LI1_cond $X=7.585 $Y=2.135
+ $X2=7.67 $Y2=2.135
r315 80 81 231.278 $w=1.68e-07 $l=3.545e-06 $layer=LI1_cond $X=7.585 $Y=2.135
+ $X2=4.04 $Y2=2.135
r316 79 81 6.81649 $w=1.7e-07 $l=1.20208e-07 $layer=LI1_cond $X=3.955 $Y=2.05
+ $X2=4.04 $Y2=2.135
r317 78 79 26.0963 $w=1.68e-07 $l=4e-07 $layer=LI1_cond $X=3.955 $Y=1.65
+ $X2=3.955 $Y2=2.05
r318 76 78 6.81649 $w=1.7e-07 $l=1.20208e-07 $layer=LI1_cond $X=3.87 $Y=1.565
+ $X2=3.955 $Y2=1.65
r319 76 105 14.0267 $w=1.68e-07 $l=2.15e-07 $layer=LI1_cond $X=3.87 $Y=1.565
+ $X2=3.655 $Y2=1.565
r320 74 119 41.9667 $w=3.3e-07 $l=2.4e-07 $layer=POLY_cond $X=1.14 $Y=1.485
+ $X2=1.38 $Y2=1.485
r321 74 117 31.475 $w=3.3e-07 $l=1.8e-07 $layer=POLY_cond $X=1.14 $Y=1.485
+ $X2=0.96 $Y2=1.485
r322 73 74 36.32 $w=1.7e-07 $l=6.8e-07 $layer=licon1_POLY $count=4 $X=1.14
+ $Y=1.485 $X2=1.14 $Y2=1.485
r323 71 103 1.04768 $w=3.28e-07 $l=3e-08 $layer=LI1_cond $X=3.49 $Y=1.485
+ $X2=3.52 $Y2=1.485
r324 71 73 82.0679 $w=3.28e-07 $l=2.35e-06 $layer=LI1_cond $X=3.49 $Y=1.485
+ $X2=1.14 $Y2=1.485
r325 67 130 21.2229 $w=1.5e-07 $l=1.65e-07 $layer=POLY_cond $X=3.81 $Y=1.32
+ $X2=3.81 $Y2=1.485
r326 67 69 297.404 $w=1.5e-07 $l=5.8e-07 $layer=POLY_cond $X=3.81 $Y=1.32
+ $X2=3.81 $Y2=0.74
r327 63 129 16.9318 $w=1.8e-07 $l=1.65e-07 $layer=POLY_cond $X=3.795 $Y=1.65
+ $X2=3.795 $Y2=1.485
r328 63 65 291.532 $w=1.8e-07 $l=7.5e-07 $layer=POLY_cond $X=3.795 $Y=1.65
+ $X2=3.795 $Y2=2.4
r329 59 127 21.2229 $w=1.5e-07 $l=1.65e-07 $layer=POLY_cond $X=3.325 $Y=1.32
+ $X2=3.325 $Y2=1.485
r330 59 61 297.404 $w=1.5e-07 $l=5.8e-07 $layer=POLY_cond $X=3.325 $Y=1.32
+ $X2=3.325 $Y2=0.74
r331 55 126 16.9318 $w=1.8e-07 $l=1.65e-07 $layer=POLY_cond $X=3.31 $Y=1.65
+ $X2=3.31 $Y2=1.485
r332 55 57 291.532 $w=1.8e-07 $l=7.5e-07 $layer=POLY_cond $X=3.31 $Y=1.65
+ $X2=3.31 $Y2=2.4
r333 51 125 21.2229 $w=1.5e-07 $l=1.65e-07 $layer=POLY_cond $X=2.81 $Y=1.32
+ $X2=2.81 $Y2=1.485
r334 51 53 297.404 $w=1.5e-07 $l=5.8e-07 $layer=POLY_cond $X=2.81 $Y=1.32
+ $X2=2.81 $Y2=0.74
r335 47 125 16.9318 $w=1.8e-07 $l=1.65e-07 $layer=POLY_cond $X=2.81 $Y=1.65
+ $X2=2.81 $Y2=1.485
r336 47 49 291.532 $w=1.8e-07 $l=7.5e-07 $layer=POLY_cond $X=2.81 $Y=1.65
+ $X2=2.81 $Y2=2.4
r337 43 124 16.9318 $w=1.8e-07 $l=1.65e-07 $layer=POLY_cond $X=2.36 $Y=1.65
+ $X2=2.36 $Y2=1.485
r338 43 45 291.532 $w=1.8e-07 $l=7.5e-07 $layer=POLY_cond $X=2.36 $Y=1.65
+ $X2=2.36 $Y2=2.4
r339 39 123 21.2229 $w=1.5e-07 $l=1.65e-07 $layer=POLY_cond $X=2.31 $Y=1.32
+ $X2=2.31 $Y2=1.485
r340 39 41 297.404 $w=1.5e-07 $l=5.8e-07 $layer=POLY_cond $X=2.31 $Y=1.32
+ $X2=2.31 $Y2=0.74
r341 35 122 16.9318 $w=1.8e-07 $l=1.65e-07 $layer=POLY_cond $X=1.91 $Y=1.65
+ $X2=1.91 $Y2=1.485
r342 35 37 291.532 $w=1.8e-07 $l=7.5e-07 $layer=POLY_cond $X=1.91 $Y=1.65
+ $X2=1.91 $Y2=2.4
r343 31 121 21.2229 $w=1.5e-07 $l=1.65e-07 $layer=POLY_cond $X=1.81 $Y=1.32
+ $X2=1.81 $Y2=1.485
r344 31 33 297.404 $w=1.5e-07 $l=5.8e-07 $layer=POLY_cond $X=1.81 $Y=1.32
+ $X2=1.81 $Y2=0.74
r345 27 120 16.9318 $w=1.8e-07 $l=1.65e-07 $layer=POLY_cond $X=1.41 $Y=1.65
+ $X2=1.41 $Y2=1.485
r346 27 29 291.532 $w=1.8e-07 $l=7.5e-07 $layer=POLY_cond $X=1.41 $Y=1.65
+ $X2=1.41 $Y2=2.4
r347 23 119 21.2229 $w=1.5e-07 $l=1.65e-07 $layer=POLY_cond $X=1.38 $Y=1.32
+ $X2=1.38 $Y2=1.485
r348 23 25 297.404 $w=1.5e-07 $l=5.8e-07 $layer=POLY_cond $X=1.38 $Y=1.32
+ $X2=1.38 $Y2=0.74
r349 19 117 16.9318 $w=1.8e-07 $l=1.65e-07 $layer=POLY_cond $X=0.96 $Y=1.65
+ $X2=0.96 $Y2=1.485
r350 19 21 291.532 $w=1.8e-07 $l=7.5e-07 $layer=POLY_cond $X=0.96 $Y=1.65
+ $X2=0.96 $Y2=2.4
r351 15 116 21.2229 $w=1.5e-07 $l=1.65e-07 $layer=POLY_cond $X=0.925 $Y=1.32
+ $X2=0.925 $Y2=1.485
r352 15 17 297.404 $w=1.5e-07 $l=5.8e-07 $layer=POLY_cond $X=0.925 $Y=1.32
+ $X2=0.925 $Y2=0.74
r353 11 115 16.9318 $w=1.8e-07 $l=1.65e-07 $layer=POLY_cond $X=0.51 $Y=1.65
+ $X2=0.51 $Y2=1.485
r354 11 13 291.532 $w=1.8e-07 $l=7.5e-07 $layer=POLY_cond $X=0.51 $Y=1.65
+ $X2=0.51 $Y2=2.4
r355 7 113 21.2229 $w=1.5e-07 $l=1.65e-07 $layer=POLY_cond $X=0.495 $Y=1.32
+ $X2=0.495 $Y2=1.485
r356 7 9 297.404 $w=1.5e-07 $l=5.8e-07 $layer=POLY_cond $X=0.495 $Y=1.32
+ $X2=0.495 $Y2=0.74
r357 2 90 400 $w=1.7e-07 $l=1.04031e-06 $layer=licon1_PDIFF $count=1 $X=9.695
+ $Y=1.84 $X2=9.83 $Y2=2.815
r358 2 87 400 $w=1.7e-07 $l=2.01494e-07 $layer=licon1_PDIFF $count=1 $X=9.695
+ $Y=1.84 $X2=9.83 $Y2=1.985
r359 1 112 182 $w=1.7e-07 $l=6.21068e-07 $layer=licon1_NDIFF $count=1 $X=9.705
+ $Y=0.37 $X2=9.845 $Y2=0.925
r360 1 94 182 $w=1.7e-07 $l=1.96214e-07 $layer=licon1_NDIFF $count=1 $X=9.705
+ $Y=0.37 $X2=9.845 $Y2=0.505
.ends

.subckt PM_SKY130_FD_SC_MS__EBUFN_8%A_833_48# 1 2 7 9 10 11 12 14 15 17 19 20 22
+ 24 25 27 29 30 32 34 35 37 39 40 42 44 45 48 49 50 51 52 53 54 55 56 58 59 62
+ 64 66 68
c165 58 0 1.53658e-19 $X=8.01 $Y=1.8
c166 17 0 2.61838e-20 $X=5.1 $Y=1.185
c167 11 0 6.69633e-20 $X=4.315 $Y=1.26
c168 7 0 7.54658e-20 $X=4.24 $Y=1.185
r169 71 73 3.15083 $w=4.84e-07 $l=1.25e-07 $layer=LI1_cond $X=7.885 $Y=0.67
+ $X2=8.01 $Y2=0.67
r170 71 72 96.8533 $w=1.7e-07 $l=2.55e-07 $layer=licon1_POLY $count=1 $X=7.885
+ $Y=0.505 $X2=7.885 $Y2=0.505
r171 66 68 31.116 $w=2.48e-07 $l=6.75e-07 $layer=LI1_cond $X=8.095 $Y=1.925
+ $X2=8.77 $Y2=1.925
r172 62 72 118.906 $w=3.3e-07 $l=6.8e-07 $layer=POLY_cond $X=8.565 $Y=0.505
+ $X2=7.885 $Y2=0.505
r173 61 64 7.49781 $w=6.68e-07 $l=4.2e-07 $layer=LI1_cond $X=8.565 $Y=0.675
+ $X2=8.985 $Y2=0.675
r174 61 62 96.8533 $w=1.7e-07 $l=2.55e-07 $layer=licon1_POLY $count=1 $X=8.565
+ $Y=0.505 $X2=8.565 $Y2=0.505
r175 59 73 2.5084 $w=6.7e-07 $l=8.74643e-08 $layer=LI1_cond $X=8.095 $Y=0.675
+ $X2=8.01 $Y2=0.67
r176 59 61 8.3904 $w=6.68e-07 $l=4.7e-07 $layer=LI1_cond $X=8.095 $Y=0.675
+ $X2=8.565 $Y2=0.675
r177 58 66 7.14316 $w=2.5e-07 $l=1.62019e-07 $layer=LI1_cond $X=8.01 $Y=1.8
+ $X2=8.095 $Y2=1.925
r178 57 73 6.95298 $w=1.7e-07 $l=3.4e-07 $layer=LI1_cond $X=8.01 $Y=1.01
+ $X2=8.01 $Y2=0.67
r179 57 58 51.5401 $w=1.68e-07 $l=7.9e-07 $layer=LI1_cond $X=8.01 $Y=1.01
+ $X2=8.01 $Y2=1.8
r180 56 72 2.62292 $w=3.3e-07 $l=1.5e-08 $layer=POLY_cond $X=7.87 $Y=0.505
+ $X2=7.885 $Y2=0.505
r181 47 56 32.1775 $w=3.3e-07 $l=1.98997e-07 $layer=POLY_cond $X=7.795 $Y=0.67
+ $X2=7.87 $Y2=0.505
r182 47 48 264.074 $w=1.5e-07 $l=5.15e-07 $layer=POLY_cond $X=7.795 $Y=0.67
+ $X2=7.795 $Y2=1.185
r183 46 55 20.4101 $w=1.5e-07 $l=7.5e-08 $layer=POLY_cond $X=7.325 $Y=1.26
+ $X2=7.25 $Y2=1.26
r184 45 48 26.9307 $w=1.5e-07 $l=1.06066e-07 $layer=POLY_cond $X=7.72 $Y=1.26
+ $X2=7.795 $Y2=1.185
r185 45 46 202.543 $w=1.5e-07 $l=3.95e-07 $layer=POLY_cond $X=7.72 $Y=1.26
+ $X2=7.325 $Y2=1.26
r186 42 55 5.30422 $w=1.5e-07 $l=7.5e-08 $layer=POLY_cond $X=7.25 $Y=1.185
+ $X2=7.25 $Y2=1.26
r187 42 44 142.993 $w=1.5e-07 $l=4.45e-07 $layer=POLY_cond $X=7.25 $Y=1.185
+ $X2=7.25 $Y2=0.74
r188 41 54 20.4101 $w=1.5e-07 $l=7.5e-08 $layer=POLY_cond $X=6.895 $Y=1.26
+ $X2=6.82 $Y2=1.26
r189 40 55 20.4101 $w=1.5e-07 $l=7.5e-08 $layer=POLY_cond $X=7.175 $Y=1.26
+ $X2=7.25 $Y2=1.26
r190 40 41 143.574 $w=1.5e-07 $l=2.8e-07 $layer=POLY_cond $X=7.175 $Y=1.26
+ $X2=6.895 $Y2=1.26
r191 37 54 5.30422 $w=1.5e-07 $l=7.5e-08 $layer=POLY_cond $X=6.82 $Y=1.185
+ $X2=6.82 $Y2=1.26
r192 37 39 142.993 $w=1.5e-07 $l=4.45e-07 $layer=POLY_cond $X=6.82 $Y=1.185
+ $X2=6.82 $Y2=0.74
r193 36 53 20.4101 $w=1.5e-07 $l=7.5e-08 $layer=POLY_cond $X=6.465 $Y=1.26
+ $X2=6.39 $Y2=1.26
r194 35 54 20.4101 $w=1.5e-07 $l=7.5e-08 $layer=POLY_cond $X=6.745 $Y=1.26
+ $X2=6.82 $Y2=1.26
r195 35 36 143.574 $w=1.5e-07 $l=2.8e-07 $layer=POLY_cond $X=6.745 $Y=1.26
+ $X2=6.465 $Y2=1.26
r196 32 53 5.30422 $w=1.5e-07 $l=7.5e-08 $layer=POLY_cond $X=6.39 $Y=1.185
+ $X2=6.39 $Y2=1.26
r197 32 34 142.993 $w=1.5e-07 $l=4.45e-07 $layer=POLY_cond $X=6.39 $Y=1.185
+ $X2=6.39 $Y2=0.74
r198 31 52 20.4101 $w=1.5e-07 $l=7.5e-08 $layer=POLY_cond $X=6.035 $Y=1.26
+ $X2=5.96 $Y2=1.26
r199 30 53 20.4101 $w=1.5e-07 $l=7.5e-08 $layer=POLY_cond $X=6.315 $Y=1.26
+ $X2=6.39 $Y2=1.26
r200 30 31 143.574 $w=1.5e-07 $l=2.8e-07 $layer=POLY_cond $X=6.315 $Y=1.26
+ $X2=6.035 $Y2=1.26
r201 27 52 5.30422 $w=1.5e-07 $l=7.5e-08 $layer=POLY_cond $X=5.96 $Y=1.185
+ $X2=5.96 $Y2=1.26
r202 27 29 142.993 $w=1.5e-07 $l=4.45e-07 $layer=POLY_cond $X=5.96 $Y=1.185
+ $X2=5.96 $Y2=0.74
r203 26 51 20.4101 $w=1.5e-07 $l=7.5e-08 $layer=POLY_cond $X=5.605 $Y=1.26
+ $X2=5.53 $Y2=1.26
r204 25 52 20.4101 $w=1.5e-07 $l=7.5e-08 $layer=POLY_cond $X=5.885 $Y=1.26
+ $X2=5.96 $Y2=1.26
r205 25 26 143.574 $w=1.5e-07 $l=2.8e-07 $layer=POLY_cond $X=5.885 $Y=1.26
+ $X2=5.605 $Y2=1.26
r206 22 51 5.30422 $w=1.5e-07 $l=7.5e-08 $layer=POLY_cond $X=5.53 $Y=1.185
+ $X2=5.53 $Y2=1.26
r207 22 24 142.993 $w=1.5e-07 $l=4.45e-07 $layer=POLY_cond $X=5.53 $Y=1.185
+ $X2=5.53 $Y2=0.74
r208 21 50 20.4101 $w=1.5e-07 $l=7.5e-08 $layer=POLY_cond $X=5.175 $Y=1.26
+ $X2=5.1 $Y2=1.26
r209 20 51 20.4101 $w=1.5e-07 $l=7.5e-08 $layer=POLY_cond $X=5.455 $Y=1.26
+ $X2=5.53 $Y2=1.26
r210 20 21 143.574 $w=1.5e-07 $l=2.8e-07 $layer=POLY_cond $X=5.455 $Y=1.26
+ $X2=5.175 $Y2=1.26
r211 17 50 5.30422 $w=1.5e-07 $l=7.5e-08 $layer=POLY_cond $X=5.1 $Y=1.185
+ $X2=5.1 $Y2=1.26
r212 17 19 142.993 $w=1.5e-07 $l=4.45e-07 $layer=POLY_cond $X=5.1 $Y=1.185
+ $X2=5.1 $Y2=0.74
r213 16 49 20.4101 $w=1.5e-07 $l=7.5e-08 $layer=POLY_cond $X=4.745 $Y=1.26
+ $X2=4.67 $Y2=1.26
r214 15 50 20.4101 $w=1.5e-07 $l=7.5e-08 $layer=POLY_cond $X=5.025 $Y=1.26
+ $X2=5.1 $Y2=1.26
r215 15 16 143.574 $w=1.5e-07 $l=2.8e-07 $layer=POLY_cond $X=5.025 $Y=1.26
+ $X2=4.745 $Y2=1.26
r216 12 49 5.30422 $w=1.5e-07 $l=7.5e-08 $layer=POLY_cond $X=4.67 $Y=1.185
+ $X2=4.67 $Y2=1.26
r217 12 14 142.993 $w=1.5e-07 $l=4.45e-07 $layer=POLY_cond $X=4.67 $Y=1.185
+ $X2=4.67 $Y2=0.74
r218 10 49 20.4101 $w=1.5e-07 $l=7.5e-08 $layer=POLY_cond $X=4.595 $Y=1.26
+ $X2=4.67 $Y2=1.26
r219 10 11 143.574 $w=1.5e-07 $l=2.8e-07 $layer=POLY_cond $X=4.595 $Y=1.26
+ $X2=4.315 $Y2=1.26
r220 7 11 26.9307 $w=1.5e-07 $l=1.06066e-07 $layer=POLY_cond $X=4.24 $Y=1.185
+ $X2=4.315 $Y2=1.26
r221 7 9 142.993 $w=1.5e-07 $l=4.45e-07 $layer=POLY_cond $X=4.24 $Y=1.185
+ $X2=4.24 $Y2=0.74
r222 2 68 600 $w=1.7e-07 $l=3.06186e-07 $layer=licon1_PDIFF $count=1 $X=8.52
+ $Y=1.84 $X2=8.77 $Y2=1.965
r223 1 64 91 $w=1.7e-07 $l=2.05061e-07 $layer=licon1_NDIFF $count=2 $X=8.84
+ $Y=0.37 $X2=8.985 $Y2=0.515
.ends

.subckt PM_SKY130_FD_SC_MS__EBUFN_8%TE_B 1 3 4 5 6 8 9 11 13 14 16 18 19 21 23
+ 24 26 28 29 31 33 34 36 38 41 42 43 45 46 48 49 50 51 52 53 54 55 56 57 58 65
+ 67
c182 31 0 1.53658e-19 $X=7.26 $Y=1.765
r183 67 68 96.8533 $w=1.7e-07 $l=2.55e-07 $layer=licon1_POLY $count=1 $X=9.11
+ $Y=1.385 $X2=9.11 $Y2=1.385
r184 63 65 47.8511 $w=5.45e-07 $l=1.65e-07 $layer=POLY_cond $X=8.43 $Y=1.492
+ $X2=8.265 $Y2=1.492
r185 63 64 96.8533 $w=1.7e-07 $l=2.55e-07 $layer=licon1_POLY $count=1 $X=8.43
+ $Y=1.385 $X2=8.43 $Y2=1.385
r186 58 68 7.78678 $w=3.68e-07 $l=2.5e-07 $layer=LI1_cond $X=9.36 $Y=1.365
+ $X2=9.11 $Y2=1.365
r187 57 68 7.16384 $w=3.68e-07 $l=2.3e-07 $layer=LI1_cond $X=8.88 $Y=1.365
+ $X2=9.11 $Y2=1.365
r188 57 64 14.0162 $w=3.68e-07 $l=4.5e-07 $layer=LI1_cond $X=8.88 $Y=1.365
+ $X2=8.43 $Y2=1.365
r189 56 64 0.934413 $w=3.68e-07 $l=3e-08 $layer=LI1_cond $X=8.4 $Y=1.365
+ $X2=8.43 $Y2=1.365
r190 46 67 47.7781 $w=1.65e-07 $l=1.85e-07 $layer=POLY_cond $X=9.2 $Y=1.22
+ $X2=9.015 $Y2=1.22
r191 46 48 154.24 $w=1.5e-07 $l=4.8e-07 $layer=POLY_cond $X=9.2 $Y=1.22 $X2=9.2
+ $Y2=0.74
r192 43 67 47.7781 $w=1.65e-07 $l=5.88281e-07 $layer=POLY_cond $X=9.105 $Y=1.765
+ $X2=9.015 $Y2=1.22
r193 43 45 170.039 $w=1.8e-07 $l=6.35e-07 $layer=POLY_cond $X=9.105 $Y=1.765
+ $X2=9.105 $Y2=2.4
r194 42 63 10.5042 $w=5.45e-07 $l=1.07e-07 $layer=POLY_cond $X=8.537 $Y=1.492
+ $X2=8.43 $Y2=1.492
r195 41 67 9.33847 $w=5.45e-07 $l=2.72e-07 $layer=POLY_cond $X=9.015 $Y=1.492
+ $X2=9.015 $Y2=1.22
r196 41 42 46.9255 $w=5.45e-07 $l=4.78e-07 $layer=POLY_cond $X=9.015 $Y=1.492
+ $X2=8.537 $Y2=1.492
r197 40 55 23.6879 $w=1.5e-07 $l=9e-08 $layer=POLY_cond $X=7.97 $Y=1.69 $X2=7.88
+ $Y2=1.69
r198 40 65 151.266 $w=1.5e-07 $l=2.95e-07 $layer=POLY_cond $X=7.97 $Y=1.69
+ $X2=8.265 $Y2=1.69
r199 36 55 2.7459 $w=1.8e-07 $l=7.5e-08 $layer=POLY_cond $X=7.88 $Y=1.765
+ $X2=7.88 $Y2=1.69
r200 36 38 170.039 $w=1.8e-07 $l=6.35e-07 $layer=POLY_cond $X=7.88 $Y=1.765
+ $X2=7.88 $Y2=2.4
r201 35 54 23.6879 $w=1.5e-07 $l=9e-08 $layer=POLY_cond $X=7.35 $Y=1.69 $X2=7.26
+ $Y2=1.69
r202 34 55 23.6879 $w=1.5e-07 $l=9e-08 $layer=POLY_cond $X=7.79 $Y=1.69 $X2=7.88
+ $Y2=1.69
r203 34 35 225.617 $w=1.5e-07 $l=4.4e-07 $layer=POLY_cond $X=7.79 $Y=1.69
+ $X2=7.35 $Y2=1.69
r204 31 54 2.7459 $w=1.8e-07 $l=7.5e-08 $layer=POLY_cond $X=7.26 $Y=1.765
+ $X2=7.26 $Y2=1.69
r205 31 33 170.039 $w=1.8e-07 $l=6.35e-07 $layer=POLY_cond $X=7.26 $Y=1.765
+ $X2=7.26 $Y2=2.4
r206 30 53 23.6879 $w=1.5e-07 $l=9e-08 $layer=POLY_cond $X=6.9 $Y=1.69 $X2=6.81
+ $Y2=1.69
r207 29 54 23.6879 $w=1.5e-07 $l=9e-08 $layer=POLY_cond $X=7.17 $Y=1.69 $X2=7.26
+ $Y2=1.69
r208 29 30 138.447 $w=1.5e-07 $l=2.7e-07 $layer=POLY_cond $X=7.17 $Y=1.69
+ $X2=6.9 $Y2=1.69
r209 26 53 2.7459 $w=1.8e-07 $l=7.5e-08 $layer=POLY_cond $X=6.81 $Y=1.765
+ $X2=6.81 $Y2=1.69
r210 26 28 170.039 $w=1.8e-07 $l=6.35e-07 $layer=POLY_cond $X=6.81 $Y=1.765
+ $X2=6.81 $Y2=2.4
r211 25 52 23.6879 $w=1.5e-07 $l=9e-08 $layer=POLY_cond $X=6.35 $Y=1.69 $X2=6.26
+ $Y2=1.69
r212 24 53 23.6879 $w=1.5e-07 $l=9e-08 $layer=POLY_cond $X=6.72 $Y=1.69 $X2=6.81
+ $Y2=1.69
r213 24 25 189.723 $w=1.5e-07 $l=3.7e-07 $layer=POLY_cond $X=6.72 $Y=1.69
+ $X2=6.35 $Y2=1.69
r214 21 52 2.7459 $w=1.8e-07 $l=7.5e-08 $layer=POLY_cond $X=6.26 $Y=1.765
+ $X2=6.26 $Y2=1.69
r215 21 23 170.039 $w=1.8e-07 $l=6.35e-07 $layer=POLY_cond $X=6.26 $Y=1.765
+ $X2=6.26 $Y2=2.4
r216 20 51 23.6879 $w=1.5e-07 $l=9e-08 $layer=POLY_cond $X=5.9 $Y=1.69 $X2=5.81
+ $Y2=1.69
r217 19 52 23.6879 $w=1.5e-07 $l=9e-08 $layer=POLY_cond $X=6.17 $Y=1.69 $X2=6.26
+ $Y2=1.69
r218 19 20 138.447 $w=1.5e-07 $l=2.7e-07 $layer=POLY_cond $X=6.17 $Y=1.69
+ $X2=5.9 $Y2=1.69
r219 16 51 2.7459 $w=1.8e-07 $l=7.5e-08 $layer=POLY_cond $X=5.81 $Y=1.765
+ $X2=5.81 $Y2=1.69
r220 16 18 170.039 $w=1.8e-07 $l=6.35e-07 $layer=POLY_cond $X=5.81 $Y=1.765
+ $X2=5.81 $Y2=2.4
r221 15 50 23.6879 $w=1.5e-07 $l=9e-08 $layer=POLY_cond $X=5.35 $Y=1.69 $X2=5.26
+ $Y2=1.69
r222 14 51 23.6879 $w=1.5e-07 $l=9e-08 $layer=POLY_cond $X=5.72 $Y=1.69 $X2=5.81
+ $Y2=1.69
r223 14 15 189.723 $w=1.5e-07 $l=3.7e-07 $layer=POLY_cond $X=5.72 $Y=1.69
+ $X2=5.35 $Y2=1.69
r224 11 50 2.7459 $w=1.8e-07 $l=7.5e-08 $layer=POLY_cond $X=5.26 $Y=1.765
+ $X2=5.26 $Y2=1.69
r225 11 13 170.039 $w=1.8e-07 $l=6.35e-07 $layer=POLY_cond $X=5.26 $Y=1.765
+ $X2=5.26 $Y2=2.4
r226 10 49 23.6879 $w=1.5e-07 $l=9e-08 $layer=POLY_cond $X=4.9 $Y=1.69 $X2=4.81
+ $Y2=1.69
r227 9 50 23.6879 $w=1.5e-07 $l=9e-08 $layer=POLY_cond $X=5.17 $Y=1.69 $X2=5.26
+ $Y2=1.69
r228 9 10 138.447 $w=1.5e-07 $l=2.7e-07 $layer=POLY_cond $X=5.17 $Y=1.69 $X2=4.9
+ $Y2=1.69
r229 6 49 2.7459 $w=1.8e-07 $l=7.5e-08 $layer=POLY_cond $X=4.81 $Y=1.765
+ $X2=4.81 $Y2=1.69
r230 6 8 170.039 $w=1.8e-07 $l=6.35e-07 $layer=POLY_cond $X=4.81 $Y=1.765
+ $X2=4.81 $Y2=2.4
r231 4 49 23.6879 $w=1.5e-07 $l=9e-08 $layer=POLY_cond $X=4.72 $Y=1.69 $X2=4.81
+ $Y2=1.69
r232 4 5 189.723 $w=1.5e-07 $l=3.7e-07 $layer=POLY_cond $X=4.72 $Y=1.69 $X2=4.35
+ $Y2=1.69
r233 1 5 27.2212 $w=1.5e-07 $l=1.21861e-07 $layer=POLY_cond $X=4.26 $Y=1.765
+ $X2=4.35 $Y2=1.69
r234 1 3 170.039 $w=1.8e-07 $l=6.35e-07 $layer=POLY_cond $X=4.26 $Y=1.765
+ $X2=4.26 $Y2=2.4
.ends

.subckt PM_SKY130_FD_SC_MS__EBUFN_8%A 3 5 7 10 12 14 15 24
r50 23 24 0.874306 $w=3.3e-07 $l=5e-09 $layer=POLY_cond $X=10.055 $Y=1.385
+ $X2=10.06 $Y2=1.385
r51 21 23 42.841 $w=3.3e-07 $l=2.45e-07 $layer=POLY_cond $X=9.81 $Y=1.385
+ $X2=10.055 $Y2=1.385
r52 21 22 145.28 $w=1.7e-07 $l=1.7e-07 $layer=licon1_POLY $count=1 $X=9.81
+ $Y=1.385 $X2=9.81 $Y2=1.385
r53 19 21 31.475 $w=3.3e-07 $l=1.8e-07 $layer=POLY_cond $X=9.63 $Y=1.385
+ $X2=9.81 $Y2=1.385
r54 17 19 4.37153 $w=3.3e-07 $l=2.5e-08 $layer=POLY_cond $X=9.605 $Y=1.385
+ $X2=9.63 $Y2=1.385
r55 15 22 3.14303 $w=3.28e-07 $l=9e-08 $layer=LI1_cond $X=9.81 $Y=1.295 $X2=9.81
+ $Y2=1.385
r56 12 24 21.2229 $w=1.5e-07 $l=1.65e-07 $layer=POLY_cond $X=10.06 $Y=1.22
+ $X2=10.06 $Y2=1.385
r57 12 14 154.24 $w=1.5e-07 $l=4.8e-07 $layer=POLY_cond $X=10.06 $Y=1.22
+ $X2=10.06 $Y2=0.74
r58 8 23 16.9318 $w=1.8e-07 $l=1.65e-07 $layer=POLY_cond $X=10.055 $Y=1.55
+ $X2=10.055 $Y2=1.385
r59 8 10 330.403 $w=1.8e-07 $l=8.5e-07 $layer=POLY_cond $X=10.055 $Y=1.55
+ $X2=10.055 $Y2=2.4
r60 5 19 21.2229 $w=1.5e-07 $l=1.65e-07 $layer=POLY_cond $X=9.63 $Y=1.22
+ $X2=9.63 $Y2=1.385
r61 5 7 154.24 $w=1.5e-07 $l=4.8e-07 $layer=POLY_cond $X=9.63 $Y=1.22 $X2=9.63
+ $Y2=0.74
r62 1 17 16.9318 $w=1.8e-07 $l=1.65e-07 $layer=POLY_cond $X=9.605 $Y=1.55
+ $X2=9.605 $Y2=1.385
r63 1 3 330.403 $w=1.8e-07 $l=8.5e-07 $layer=POLY_cond $X=9.605 $Y=1.55
+ $X2=9.605 $Y2=2.4
.ends

.subckt PM_SKY130_FD_SC_MS__EBUFN_8%A_28_368# 1 2 3 4 5 6 7 8 9 30 34 35 38 40
+ 44 46 50 52 54 55 56 60 64 66 68 69 70 74 76 79 82
r136 82 85 4.36531 $w=3.28e-07 $l=1.25e-07 $layer=LI1_cond $X=8.105 $Y=2.645
+ $X2=8.105 $Y2=2.77
r137 79 80 5.93683 $w=3.28e-07 $l=1.7e-07 $layer=LI1_cond $X=7.035 $Y=2.475
+ $X2=7.035 $Y2=2.645
r138 67 80 4.62375 $w=1.7e-07 $l=1.65e-07 $layer=LI1_cond $X=7.2 $Y=2.645
+ $X2=7.035 $Y2=2.645
r139 66 82 4.62375 $w=1.7e-07 $l=1.65e-07 $layer=LI1_cond $X=7.94 $Y=2.645
+ $X2=8.105 $Y2=2.645
r140 66 67 48.2781 $w=1.68e-07 $l=7.4e-07 $layer=LI1_cond $X=7.94 $Y=2.645
+ $X2=7.2 $Y2=2.645
r141 65 76 8.61065 $w=1.7e-07 $l=1.65e-07 $layer=LI1_cond $X=6.2 $Y=2.475
+ $X2=6.035 $Y2=2.475
r142 64 79 4.62375 $w=1.7e-07 $l=1.65e-07 $layer=LI1_cond $X=6.87 $Y=2.475
+ $X2=7.035 $Y2=2.475
r143 64 65 43.7112 $w=1.68e-07 $l=6.7e-07 $layer=LI1_cond $X=6.87 $Y=2.475
+ $X2=6.2 $Y2=2.475
r144 61 74 8.61065 $w=1.7e-07 $l=1.65e-07 $layer=LI1_cond $X=5.2 $Y=2.475
+ $X2=5.035 $Y2=2.475
r145 60 76 8.61065 $w=1.7e-07 $l=1.65e-07 $layer=LI1_cond $X=5.87 $Y=2.475
+ $X2=6.035 $Y2=2.475
r146 60 61 43.7112 $w=1.68e-07 $l=6.7e-07 $layer=LI1_cond $X=5.87 $Y=2.475
+ $X2=5.2 $Y2=2.475
r147 57 72 5.12568 $w=1.7e-07 $l=1.65e-07 $layer=LI1_cond $X=4.2 $Y=2.475
+ $X2=4.035 $Y2=2.475
r148 56 74 8.61065 $w=1.7e-07 $l=1.65e-07 $layer=LI1_cond $X=4.87 $Y=2.475
+ $X2=5.035 $Y2=2.475
r149 56 57 43.7112 $w=1.68e-07 $l=6.7e-07 $layer=LI1_cond $X=4.87 $Y=2.475
+ $X2=4.2 $Y2=2.475
r150 54 72 2.6405 $w=3.3e-07 $l=8.5e-08 $layer=LI1_cond $X=4.035 $Y=2.56
+ $X2=4.035 $Y2=2.475
r151 54 55 12.0483 $w=3.28e-07 $l=3.45e-07 $layer=LI1_cond $X=4.035 $Y=2.56
+ $X2=4.035 $Y2=2.905
r152 53 70 7.44763 $w=1.7e-07 $l=1.35e-07 $layer=LI1_cond $X=3.19 $Y=2.99
+ $X2=3.055 $Y2=2.99
r153 52 55 7.76618 $w=1.7e-07 $l=2.03101e-07 $layer=LI1_cond $X=3.87 $Y=2.99
+ $X2=4.035 $Y2=2.905
r154 52 53 44.3636 $w=1.68e-07 $l=6.8e-07 $layer=LI1_cond $X=3.87 $Y=2.99
+ $X2=3.19 $Y2=2.99
r155 48 70 0.256868 $w=2.7e-07 $l=8.5e-08 $layer=LI1_cond $X=3.055 $Y=2.905
+ $X2=3.055 $Y2=2.99
r156 48 50 24.7562 $w=2.68e-07 $l=5.8e-07 $layer=LI1_cond $X=3.055 $Y=2.905
+ $X2=3.055 $Y2=2.325
r157 47 69 5.16603 $w=1.7e-07 $l=8.5e-08 $layer=LI1_cond $X=2.22 $Y=2.99
+ $X2=2.135 $Y2=2.99
r158 46 70 7.44763 $w=1.7e-07 $l=1.35e-07 $layer=LI1_cond $X=2.92 $Y=2.99
+ $X2=3.055 $Y2=2.99
r159 46 47 45.6684 $w=1.68e-07 $l=7e-07 $layer=LI1_cond $X=2.92 $Y=2.99 $X2=2.22
+ $Y2=2.99
r160 42 69 1.34256 $w=1.7e-07 $l=8.5e-08 $layer=LI1_cond $X=2.135 $Y=2.905
+ $X2=2.135 $Y2=2.99
r161 42 44 37.8396 $w=1.68e-07 $l=5.8e-07 $layer=LI1_cond $X=2.135 $Y=2.905
+ $X2=2.135 $Y2=2.325
r162 41 68 7.34436 $w=1.7e-07 $l=1.33e-07 $layer=LI1_cond $X=1.35 $Y=2.99
+ $X2=1.217 $Y2=2.99
r163 40 69 5.16603 $w=1.7e-07 $l=8.5e-08 $layer=LI1_cond $X=2.05 $Y=2.99
+ $X2=2.135 $Y2=2.99
r164 40 41 45.6684 $w=1.68e-07 $l=7e-07 $layer=LI1_cond $X=2.05 $Y=2.99 $X2=1.35
+ $Y2=2.99
r165 36 68 0.195364 $w=2.65e-07 $l=8.5e-08 $layer=LI1_cond $X=1.217 $Y=2.905
+ $X2=1.217 $Y2=2.99
r166 36 38 25.2233 $w=2.63e-07 $l=5.8e-07 $layer=LI1_cond $X=1.217 $Y=2.905
+ $X2=1.217 $Y2=2.325
r167 34 68 7.34436 $w=1.7e-07 $l=1.32e-07 $layer=LI1_cond $X=1.085 $Y=2.99
+ $X2=1.217 $Y2=2.99
r168 34 35 46.6471 $w=1.68e-07 $l=7.15e-07 $layer=LI1_cond $X=1.085 $Y=2.99
+ $X2=0.37 $Y2=2.99
r169 30 33 38.2611 $w=2.48e-07 $l=8.3e-07 $layer=LI1_cond $X=0.245 $Y=1.985
+ $X2=0.245 $Y2=2.815
r170 28 35 7.14316 $w=1.7e-07 $l=1.62019e-07 $layer=LI1_cond $X=0.245 $Y=2.905
+ $X2=0.37 $Y2=2.99
r171 28 33 4.14879 $w=2.48e-07 $l=9e-08 $layer=LI1_cond $X=0.245 $Y=2.905
+ $X2=0.245 $Y2=2.815
r172 9 85 600 $w=1.7e-07 $l=9.95214e-07 $layer=licon1_PDIFF $count=1 $X=7.97
+ $Y=1.84 $X2=8.105 $Y2=2.77
r173 8 79 300 $w=1.7e-07 $l=6.9925e-07 $layer=licon1_PDIFF $count=2 $X=6.9
+ $Y=1.84 $X2=7.035 $Y2=2.475
r174 7 76 300 $w=1.7e-07 $l=6.9925e-07 $layer=licon1_PDIFF $count=2 $X=5.9
+ $Y=1.84 $X2=6.035 $Y2=2.475
r175 6 74 300 $w=1.7e-07 $l=6.9925e-07 $layer=licon1_PDIFF $count=2 $X=4.9
+ $Y=1.84 $X2=5.035 $Y2=2.475
r176 5 72 300 $w=1.7e-07 $l=7.06028e-07 $layer=licon1_PDIFF $count=2 $X=3.885
+ $Y=1.84 $X2=4.035 $Y2=2.475
r177 4 50 300 $w=1.7e-07 $l=5.70044e-07 $layer=licon1_PDIFF $count=2 $X=2.9
+ $Y=1.84 $X2=3.085 $Y2=2.325
r178 3 44 300 $w=1.7e-07 $l=5.48361e-07 $layer=licon1_PDIFF $count=2 $X=2
+ $Y=1.84 $X2=2.135 $Y2=2.325
r179 2 38 300 $w=1.7e-07 $l=5.48361e-07 $layer=licon1_PDIFF $count=2 $X=1.05
+ $Y=1.84 $X2=1.185 $Y2=2.325
r180 1 33 400 $w=1.7e-07 $l=1.04499e-06 $layer=licon1_PDIFF $count=1 $X=0.14
+ $Y=1.84 $X2=0.285 $Y2=2.815
r181 1 30 400 $w=1.7e-07 $l=2.05061e-07 $layer=licon1_PDIFF $count=1 $X=0.14
+ $Y=1.84 $X2=0.285 $Y2=1.985
.ends

.subckt PM_SKY130_FD_SC_MS__EBUFN_8%Z 1 2 3 4 5 6 7 8 27 29 31 35 39 41 43 47 51
+ 53 55 57 59 63 67 68 70 72 73 76 77 78 85 89
c129 57 0 1.8687e-19 $X=3.535 $Y=1.99
c130 55 0 5.58653e-20 $X=3.43 $Y=1.065
r131 83 89 1.92074 $w=3.28e-07 $l=5.5e-08 $layer=LI1_cond $X=0.71 $Y=0.98
+ $X2=0.71 $Y2=0.925
r132 77 78 14.7036 $w=2.88e-07 $l=3.7e-07 $layer=LI1_cond $X=0.69 $Y=1.295
+ $X2=0.69 $Y2=1.665
r133 77 90 5.76222 $w=2.88e-07 $l=1.45e-07 $layer=LI1_cond $X=0.69 $Y=1.295
+ $X2=0.69 $Y2=1.15
r134 76 83 3.05675 $w=3.1e-07 $l=8.5e-08 $layer=LI1_cond $X=0.71 $Y=1.065
+ $X2=0.71 $Y2=0.98
r135 76 90 3.05675 $w=3.1e-07 $l=9.44722e-08 $layer=LI1_cond $X=0.71 $Y=1.065
+ $X2=0.69 $Y2=1.15
r136 76 89 0.523838 $w=3.28e-07 $l=1.5e-08 $layer=LI1_cond $X=0.71 $Y=0.91
+ $X2=0.71 $Y2=0.925
r137 76 85 5.23838 $w=3.28e-07 $l=1.5e-07 $layer=LI1_cond $X=0.71 $Y=0.91
+ $X2=0.71 $Y2=0.76
r138 65 78 6.15961 $w=2.88e-07 $l=1.55e-07 $layer=LI1_cond $X=0.69 $Y=1.82
+ $X2=0.69 $Y2=1.665
r139 65 67 2.94878 $w=3.22e-07 $l=9.97246e-08 $layer=LI1_cond $X=0.69 $Y=1.82
+ $X2=0.722 $Y2=1.905
r140 61 63 7.68295 $w=3.28e-07 $l=2.2e-07 $layer=LI1_cond $X=3.595 $Y=0.98
+ $X2=3.595 $Y2=0.76
r141 57 75 2.6405 $w=3.3e-07 $l=8.5e-08 $layer=LI1_cond $X=3.535 $Y=1.99
+ $X2=3.535 $Y2=1.905
r142 57 59 23.0489 $w=3.28e-07 $l=6.6e-07 $layer=LI1_cond $X=3.535 $Y=1.99
+ $X2=3.535 $Y2=2.65
r143 56 73 8.61065 $w=1.7e-07 $l=1.65e-07 $layer=LI1_cond $X=2.76 $Y=1.065
+ $X2=2.595 $Y2=1.065
r144 55 61 7.76618 $w=1.7e-07 $l=2.03101e-07 $layer=LI1_cond $X=3.43 $Y=1.065
+ $X2=3.595 $Y2=0.98
r145 55 56 43.7112 $w=1.68e-07 $l=6.7e-07 $layer=LI1_cond $X=3.43 $Y=1.065
+ $X2=2.76 $Y2=1.065
r146 54 72 8.61065 $w=1.7e-07 $l=1.65e-07 $layer=LI1_cond $X=2.75 $Y=1.905
+ $X2=2.585 $Y2=1.905
r147 53 75 5.12568 $w=1.7e-07 $l=1.65e-07 $layer=LI1_cond $X=3.37 $Y=1.905
+ $X2=3.535 $Y2=1.905
r148 53 54 40.4492 $w=1.68e-07 $l=6.2e-07 $layer=LI1_cond $X=3.37 $Y=1.905
+ $X2=2.75 $Y2=1.905
r149 49 73 0.89609 $w=3.3e-07 $l=8.5e-08 $layer=LI1_cond $X=2.595 $Y=0.98
+ $X2=2.595 $Y2=1.065
r150 49 51 7.68295 $w=3.28e-07 $l=2.2e-07 $layer=LI1_cond $X=2.595 $Y=0.98
+ $X2=2.595 $Y2=0.76
r151 45 72 0.89609 $w=3.3e-07 $l=8.5e-08 $layer=LI1_cond $X=2.585 $Y=1.99
+ $X2=2.585 $Y2=1.905
r152 45 47 23.0489 $w=3.28e-07 $l=6.6e-07 $layer=LI1_cond $X=2.585 $Y=1.99
+ $X2=2.585 $Y2=2.65
r153 44 70 8.61065 $w=1.7e-07 $l=1.65e-07 $layer=LI1_cond $X=1.85 $Y=1.905
+ $X2=1.685 $Y2=1.905
r154 43 72 8.61065 $w=1.7e-07 $l=1.65e-07 $layer=LI1_cond $X=2.42 $Y=1.905
+ $X2=2.585 $Y2=1.905
r155 43 44 37.1872 $w=1.68e-07 $l=5.7e-07 $layer=LI1_cond $X=2.42 $Y=1.905
+ $X2=1.85 $Y2=1.905
r156 42 68 8.61065 $w=1.7e-07 $l=1.65e-07 $layer=LI1_cond $X=1.76 $Y=1.065
+ $X2=1.595 $Y2=1.065
r157 41 73 8.61065 $w=1.7e-07 $l=1.65e-07 $layer=LI1_cond $X=2.43 $Y=1.065
+ $X2=2.595 $Y2=1.065
r158 41 42 43.7112 $w=1.68e-07 $l=6.7e-07 $layer=LI1_cond $X=2.43 $Y=1.065
+ $X2=1.76 $Y2=1.065
r159 37 70 0.89609 $w=3.3e-07 $l=8.5e-08 $layer=LI1_cond $X=1.685 $Y=1.99
+ $X2=1.685 $Y2=1.905
r160 37 39 23.0489 $w=3.28e-07 $l=6.6e-07 $layer=LI1_cond $X=1.685 $Y=1.99
+ $X2=1.685 $Y2=2.65
r161 33 68 0.89609 $w=3.3e-07 $l=8.5e-08 $layer=LI1_cond $X=1.595 $Y=0.98
+ $X2=1.595 $Y2=1.065
r162 33 35 7.68295 $w=3.28e-07 $l=2.2e-07 $layer=LI1_cond $X=1.595 $Y=0.98
+ $X2=1.595 $Y2=0.76
r163 32 67 3.72223 $w=1.7e-07 $l=1.78e-07 $layer=LI1_cond $X=0.9 $Y=1.905
+ $X2=0.722 $Y2=1.905
r164 31 70 8.61065 $w=1.7e-07 $l=1.65e-07 $layer=LI1_cond $X=1.52 $Y=1.905
+ $X2=1.685 $Y2=1.905
r165 31 32 40.4492 $w=1.68e-07 $l=6.2e-07 $layer=LI1_cond $X=1.52 $Y=1.905
+ $X2=0.9 $Y2=1.905
r166 30 76 3.57226 $w=1.7e-07 $l=1.65e-07 $layer=LI1_cond $X=0.875 $Y=1.065
+ $X2=0.71 $Y2=1.065
r167 29 68 8.61065 $w=1.7e-07 $l=1.65e-07 $layer=LI1_cond $X=1.43 $Y=1.065
+ $X2=1.595 $Y2=1.065
r168 29 30 36.2086 $w=1.68e-07 $l=5.55e-07 $layer=LI1_cond $X=1.43 $Y=1.065
+ $X2=0.875 $Y2=1.065
r169 25 67 2.94878 $w=3.22e-07 $l=8.5e-08 $layer=LI1_cond $X=0.722 $Y=1.99
+ $X2=0.722 $Y2=1.905
r170 25 27 21.4257 $w=3.53e-07 $l=6.6e-07 $layer=LI1_cond $X=0.722 $Y=1.99
+ $X2=0.722 $Y2=2.65
r171 8 75 400 $w=1.7e-07 $l=1.89143e-07 $layer=licon1_PDIFF $count=1 $X=3.4
+ $Y=1.84 $X2=3.535 $Y2=1.97
r172 8 59 400 $w=1.7e-07 $l=8.749e-07 $layer=licon1_PDIFF $count=1 $X=3.4
+ $Y=1.84 $X2=3.535 $Y2=2.65
r173 7 72 400 $w=1.7e-07 $l=1.89143e-07 $layer=licon1_PDIFF $count=1 $X=2.45
+ $Y=1.84 $X2=2.585 $Y2=1.97
r174 7 47 400 $w=1.7e-07 $l=8.749e-07 $layer=licon1_PDIFF $count=1 $X=2.45
+ $Y=1.84 $X2=2.585 $Y2=2.65
r175 6 70 400 $w=1.7e-07 $l=2.41402e-07 $layer=licon1_PDIFF $count=1 $X=1.5
+ $Y=1.84 $X2=1.685 $Y2=1.97
r176 6 39 400 $w=1.7e-07 $l=8.97747e-07 $layer=licon1_PDIFF $count=1 $X=1.5
+ $Y=1.84 $X2=1.685 $Y2=2.65