* File: sky130_fd_sc_ms__a21boi_4.pex.spice
* Created: Wed Sep  2 11:51:10 2020
* Program "Calibre xRC"
* Version "v2018.4_34.26"
* Nominal Temperature: 27C
* Circuit Temperature: 27C
* 
.subckt PM_SKY130_FD_SC_MS__A21BOI_4%A1 3 7 11 15 19 23 27 31 33 34 35 36 58
c79 23 0 9.07735e-20 $X=1.43 $Y=0.74
c80 19 0 1.47716e-19 $X=1.405 $Y=2.4
c81 11 0 1.47716e-19 $X=0.955 $Y=2.4
c82 7 0 1.44963e-19 $X=0.57 $Y=0.74
r83 57 58 0.874306 $w=3.3e-07 $l=5e-09 $layer=POLY_cond $X=1.855 $Y=1.515
+ $X2=1.86 $Y2=1.515
r84 55 57 44.5896 $w=3.3e-07 $l=2.55e-07 $layer=POLY_cond $X=1.6 $Y=1.515
+ $X2=1.855 $Y2=1.515
r85 55 56 145.28 $w=1.7e-07 $l=1.7e-07 $layer=licon1_POLY $count=1 $X=1.6
+ $Y=1.515 $X2=1.6 $Y2=1.515
r86 53 55 29.7264 $w=3.3e-07 $l=1.7e-07 $layer=POLY_cond $X=1.43 $Y=1.515
+ $X2=1.6 $Y2=1.515
r87 52 53 4.37153 $w=3.3e-07 $l=2.5e-08 $layer=POLY_cond $X=1.405 $Y=1.515
+ $X2=1.43 $Y2=1.515
r88 51 56 11.1952 $w=3.48e-07 $l=3.4e-07 $layer=LI1_cond $X=1.26 $Y=1.605
+ $X2=1.6 $Y2=1.605
r89 50 52 25.3549 $w=3.3e-07 $l=1.45e-07 $layer=POLY_cond $X=1.26 $Y=1.515
+ $X2=1.405 $Y2=1.515
r90 50 51 145.28 $w=1.7e-07 $l=1.7e-07 $layer=licon1_POLY $count=1 $X=1.26
+ $Y=1.515 $X2=1.26 $Y2=1.515
r91 48 50 45.4639 $w=3.3e-07 $l=2.6e-07 $layer=POLY_cond $X=1 $Y=1.515 $X2=1.26
+ $Y2=1.515
r92 47 48 7.86876 $w=3.3e-07 $l=4.5e-08 $layer=POLY_cond $X=0.955 $Y=1.515 $X2=1
+ $Y2=1.515
r93 45 47 6.12014 $w=3.3e-07 $l=3.5e-08 $layer=POLY_cond $X=0.92 $Y=1.515
+ $X2=0.955 $Y2=1.515
r94 45 46 72.64 $w=1.7e-07 $l=3.4e-07 $layer=licon1_POLY $count=2 $X=0.92
+ $Y=1.515 $X2=0.92 $Y2=1.515
r95 43 45 61.2015 $w=3.3e-07 $l=3.5e-07 $layer=POLY_cond $X=0.57 $Y=1.515
+ $X2=0.92 $Y2=1.515
r96 41 43 11.366 $w=3.3e-07 $l=6.5e-08 $layer=POLY_cond $X=0.505 $Y=1.515
+ $X2=0.57 $Y2=1.515
r97 36 56 2.63416 $w=3.48e-07 $l=8e-08 $layer=LI1_cond $X=1.68 $Y=1.605 $X2=1.6
+ $Y2=1.605
r98 35 51 1.97562 $w=3.48e-07 $l=6e-08 $layer=LI1_cond $X=1.2 $Y=1.605 $X2=1.26
+ $Y2=1.605
r99 35 46 9.21954 $w=3.48e-07 $l=2.8e-07 $layer=LI1_cond $X=1.2 $Y=1.605
+ $X2=0.92 $Y2=1.605
r100 34 46 6.58539 $w=3.48e-07 $l=2e-07 $layer=LI1_cond $X=0.72 $Y=1.605
+ $X2=0.92 $Y2=1.605
r101 33 34 15.8049 $w=3.48e-07 $l=4.8e-07 $layer=LI1_cond $X=0.24 $Y=1.605
+ $X2=0.72 $Y2=1.605
r102 29 58 21.2229 $w=1.5e-07 $l=1.65e-07 $layer=POLY_cond $X=1.86 $Y=1.35
+ $X2=1.86 $Y2=1.515
r103 29 31 312.787 $w=1.5e-07 $l=6.1e-07 $layer=POLY_cond $X=1.86 $Y=1.35
+ $X2=1.86 $Y2=0.74
r104 25 57 16.9318 $w=1.8e-07 $l=1.65e-07 $layer=POLY_cond $X=1.855 $Y=1.68
+ $X2=1.855 $Y2=1.515
r105 25 27 279.871 $w=1.8e-07 $l=7.2e-07 $layer=POLY_cond $X=1.855 $Y=1.68
+ $X2=1.855 $Y2=2.4
r106 21 53 21.2229 $w=1.5e-07 $l=1.65e-07 $layer=POLY_cond $X=1.43 $Y=1.35
+ $X2=1.43 $Y2=1.515
r107 21 23 312.787 $w=1.5e-07 $l=6.1e-07 $layer=POLY_cond $X=1.43 $Y=1.35
+ $X2=1.43 $Y2=0.74
r108 17 52 16.9318 $w=1.8e-07 $l=1.65e-07 $layer=POLY_cond $X=1.405 $Y=1.68
+ $X2=1.405 $Y2=1.515
r109 17 19 279.871 $w=1.8e-07 $l=7.2e-07 $layer=POLY_cond $X=1.405 $Y=1.68
+ $X2=1.405 $Y2=2.4
r110 13 48 21.2229 $w=1.5e-07 $l=1.65e-07 $layer=POLY_cond $X=1 $Y=1.35 $X2=1
+ $Y2=1.515
r111 13 15 312.787 $w=1.5e-07 $l=6.1e-07 $layer=POLY_cond $X=1 $Y=1.35 $X2=1
+ $Y2=0.74
r112 9 47 16.9318 $w=1.8e-07 $l=1.65e-07 $layer=POLY_cond $X=0.955 $Y=1.68
+ $X2=0.955 $Y2=1.515
r113 9 11 279.871 $w=1.8e-07 $l=7.2e-07 $layer=POLY_cond $X=0.955 $Y=1.68
+ $X2=0.955 $Y2=2.4
r114 5 43 21.2229 $w=1.5e-07 $l=1.65e-07 $layer=POLY_cond $X=0.57 $Y=1.35
+ $X2=0.57 $Y2=1.515
r115 5 7 312.787 $w=1.5e-07 $l=6.1e-07 $layer=POLY_cond $X=0.57 $Y=1.35 $X2=0.57
+ $Y2=0.74
r116 1 41 16.9318 $w=1.8e-07 $l=1.65e-07 $layer=POLY_cond $X=0.505 $Y=1.68
+ $X2=0.505 $Y2=1.515
r117 1 3 279.871 $w=1.8e-07 $l=7.2e-07 $layer=POLY_cond $X=0.505 $Y=1.68
+ $X2=0.505 $Y2=2.4
.ends

.subckt PM_SKY130_FD_SC_MS__A21BOI_4%A2 3 7 11 15 19 23 27 29 31 32 33 34 56
c86 34 0 1.84735e-19 $X=3.6 $Y=1.665
r87 56 57 10.8234 $w=3.34e-07 $l=7.5e-08 $layer=POLY_cond $X=3.58 $Y=1.56
+ $X2=3.655 $Y2=1.56
r88 54 56 4.32934 $w=3.34e-07 $l=3e-08 $layer=POLY_cond $X=3.55 $Y=1.56 $X2=3.58
+ $Y2=1.56
r89 54 55 145.28 $w=1.7e-07 $l=1.7e-07 $layer=licon1_POLY $count=1 $X=3.55
+ $Y=1.515 $X2=3.55 $Y2=1.515
r90 52 55 11.1952 $w=3.48e-07 $l=3.4e-07 $layer=LI1_cond $X=3.21 $Y=1.605
+ $X2=3.55 $Y2=1.605
r91 51 54 49.0659 $w=3.34e-07 $l=3.4e-07 $layer=POLY_cond $X=3.21 $Y=1.56
+ $X2=3.55 $Y2=1.56
r92 51 52 145.28 $w=1.7e-07 $l=1.7e-07 $layer=licon1_POLY $count=1 $X=3.21
+ $Y=1.515 $X2=3.21 $Y2=1.515
r93 46 48 40.4072 $w=3.34e-07 $l=2.8e-07 $layer=POLY_cond $X=2.87 $Y=1.56
+ $X2=3.15 $Y2=1.56
r94 46 47 145.28 $w=1.7e-07 $l=1.7e-07 $layer=licon1_POLY $count=1 $X=2.87
+ $Y=1.515 $X2=2.87 $Y2=1.515
r95 41 43 27.4192 $w=3.34e-07 $l=1.9e-07 $layer=POLY_cond $X=2.53 $Y=1.56
+ $X2=2.72 $Y2=1.56
r96 41 42 145.28 $w=1.7e-07 $l=1.7e-07 $layer=licon1_POLY $count=1 $X=2.53
+ $Y=1.515 $X2=2.53 $Y2=1.515
r97 34 55 1.64635 $w=3.48e-07 $l=5e-08 $layer=LI1_cond $X=3.6 $Y=1.605 $X2=3.55
+ $Y2=1.605
r98 33 52 2.96342 $w=3.48e-07 $l=9e-08 $layer=LI1_cond $X=3.12 $Y=1.605 $X2=3.21
+ $Y2=1.605
r99 33 47 8.23174 $w=3.48e-07 $l=2.5e-07 $layer=LI1_cond $X=3.12 $Y=1.605
+ $X2=2.87 $Y2=1.605
r100 32 47 7.5732 $w=3.48e-07 $l=2.3e-07 $layer=LI1_cond $X=2.64 $Y=1.605
+ $X2=2.87 $Y2=1.605
r101 32 42 3.62196 $w=3.48e-07 $l=1.1e-07 $layer=LI1_cond $X=2.64 $Y=1.605
+ $X2=2.53 $Y2=1.605
r102 29 57 17.2128 $w=1.8e-07 $l=2.1e-07 $layer=POLY_cond $X=3.655 $Y=1.77
+ $X2=3.655 $Y2=1.56
r103 29 31 168.7 $w=1.8e-07 $l=6.3e-07 $layer=POLY_cond $X=3.655 $Y=1.77
+ $X2=3.655 $Y2=2.4
r104 25 56 21.5099 $w=1.5e-07 $l=2.1e-07 $layer=POLY_cond $X=3.58 $Y=1.35
+ $X2=3.58 $Y2=1.56
r105 25 27 312.787 $w=1.5e-07 $l=6.1e-07 $layer=POLY_cond $X=3.58 $Y=1.35
+ $X2=3.58 $Y2=0.74
r106 21 51 0.721557 $w=3.34e-07 $l=5e-09 $layer=POLY_cond $X=3.205 $Y=1.56
+ $X2=3.21 $Y2=1.56
r107 21 48 7.93713 $w=3.34e-07 $l=5.5e-08 $layer=POLY_cond $X=3.205 $Y=1.56
+ $X2=3.15 $Y2=1.56
r108 21 23 279.871 $w=1.8e-07 $l=7.2e-07 $layer=POLY_cond $X=3.205 $Y=1.68
+ $X2=3.205 $Y2=2.4
r109 17 48 21.5099 $w=1.5e-07 $l=2.1e-07 $layer=POLY_cond $X=3.15 $Y=1.35
+ $X2=3.15 $Y2=1.56
r110 17 19 312.787 $w=1.5e-07 $l=6.1e-07 $layer=POLY_cond $X=3.15 $Y=1.35
+ $X2=3.15 $Y2=0.74
r111 13 46 16.5958 $w=3.34e-07 $l=1.15e-07 $layer=POLY_cond $X=2.755 $Y=1.56
+ $X2=2.87 $Y2=1.56
r112 13 43 5.0509 $w=3.34e-07 $l=3.5e-08 $layer=POLY_cond $X=2.755 $Y=1.56
+ $X2=2.72 $Y2=1.56
r113 13 15 279.871 $w=1.8e-07 $l=7.2e-07 $layer=POLY_cond $X=2.755 $Y=1.68
+ $X2=2.755 $Y2=2.4
r114 9 43 21.5099 $w=1.5e-07 $l=2.1e-07 $layer=POLY_cond $X=2.72 $Y=1.35
+ $X2=2.72 $Y2=1.56
r115 9 11 312.787 $w=1.5e-07 $l=6.1e-07 $layer=POLY_cond $X=2.72 $Y=1.35
+ $X2=2.72 $Y2=0.74
r116 5 41 32.4701 $w=3.34e-07 $l=2.25e-07 $layer=POLY_cond $X=2.305 $Y=1.56
+ $X2=2.53 $Y2=1.56
r117 5 38 2.16467 $w=3.34e-07 $l=1.5e-08 $layer=POLY_cond $X=2.305 $Y=1.56
+ $X2=2.29 $Y2=1.56
r118 5 7 279.871 $w=1.8e-07 $l=7.2e-07 $layer=POLY_cond $X=2.305 $Y=1.68
+ $X2=2.305 $Y2=2.4
r119 1 38 21.5099 $w=1.5e-07 $l=2.1e-07 $layer=POLY_cond $X=2.29 $Y=1.35
+ $X2=2.29 $Y2=1.56
r120 1 3 312.787 $w=1.5e-07 $l=6.1e-07 $layer=POLY_cond $X=2.29 $Y=1.35 $X2=2.29
+ $Y2=0.74
.ends

.subckt PM_SKY130_FD_SC_MS__A21BOI_4%A_803_323# 1 2 7 9 10 11 12 14 17 23 27 31
+ 35 39 43 52 53 55 56 59 63 65 67 73
c124 73 0 1.04161e-19 $X=5.85 $Y=1.485
c125 67 0 3.90708e-20 $X=4.915 $Y=1.485
c126 65 0 1.00768e-19 $X=6.11 $Y=1.4
c127 52 0 1.93315e-19 $X=6.11 $Y=1.99
c128 11 0 1.84735e-19 $X=4.195 $Y=1.69
r129 70 71 6.12014 $w=3.3e-07 $l=3.5e-08 $layer=POLY_cond $X=5.42 $Y=1.485
+ $X2=5.455 $Y2=1.485
r130 66 68 2.62292 $w=3.3e-07 $l=1.5e-08 $layer=POLY_cond $X=4.99 $Y=1.485
+ $X2=5.005 $Y2=1.485
r131 66 67 30.474 $w=3.3e-07 $l=7.5e-08 $layer=POLY_cond $X=4.99 $Y=1.485
+ $X2=4.915 $Y2=1.485
r132 61 63 4.32166 $w=2.78e-07 $l=1.05e-07 $layer=LI1_cond $X=6.675 $Y=2.16
+ $X2=6.675 $Y2=2.265
r133 57 59 28.1462 $w=2.58e-07 $l=6.35e-07 $layer=LI1_cond $X=6.53 $Y=1.15
+ $X2=6.53 $Y2=0.515
r134 55 61 7.36005 $w=1.7e-07 $l=1.77482e-07 $layer=LI1_cond $X=6.535 $Y=2.075
+ $X2=6.675 $Y2=2.16
r135 55 56 22.1818 $w=1.68e-07 $l=3.4e-07 $layer=LI1_cond $X=6.535 $Y=2.075
+ $X2=6.195 $Y2=2.075
r136 54 65 3.70735 $w=2.5e-07 $l=2.03101e-07 $layer=LI1_cond $X=6.195 $Y=1.235
+ $X2=6.11 $Y2=1.4
r137 53 57 7.21222 $w=1.7e-07 $l=1.67183e-07 $layer=LI1_cond $X=6.4 $Y=1.235
+ $X2=6.53 $Y2=1.15
r138 53 54 13.3743 $w=1.68e-07 $l=2.05e-07 $layer=LI1_cond $X=6.4 $Y=1.235
+ $X2=6.195 $Y2=1.235
r139 52 56 6.81649 $w=1.7e-07 $l=1.20208e-07 $layer=LI1_cond $X=6.11 $Y=1.99
+ $X2=6.195 $Y2=2.075
r140 51 65 2.76166 $w=1.7e-07 $l=2.5e-07 $layer=LI1_cond $X=6.11 $Y=1.65
+ $X2=6.11 $Y2=1.4
r141 51 52 22.1818 $w=1.68e-07 $l=3.4e-07 $layer=LI1_cond $X=6.11 $Y=1.65
+ $X2=6.11 $Y2=1.99
r142 50 73 15.7375 $w=3.3e-07 $l=9e-08 $layer=POLY_cond $X=5.76 $Y=1.485
+ $X2=5.85 $Y2=1.485
r143 50 71 53.3327 $w=3.3e-07 $l=3.05e-07 $layer=POLY_cond $X=5.76 $Y=1.485
+ $X2=5.455 $Y2=1.485
r144 49 50 96.8533 $w=1.7e-07 $l=2.55e-07 $layer=licon1_POLY $count=1 $X=5.76
+ $Y=1.485 $X2=5.76 $Y2=1.485
r145 46 70 59.4528 $w=3.3e-07 $l=3.4e-07 $layer=POLY_cond $X=5.08 $Y=1.485
+ $X2=5.42 $Y2=1.485
r146 46 68 13.1146 $w=3.3e-07 $l=7.5e-08 $layer=POLY_cond $X=5.08 $Y=1.485
+ $X2=5.005 $Y2=1.485
r147 45 49 23.7473 $w=3.28e-07 $l=6.8e-07 $layer=LI1_cond $X=5.08 $Y=1.485
+ $X2=5.76 $Y2=1.485
r148 45 46 96.8533 $w=1.7e-07 $l=2.55e-07 $layer=licon1_POLY $count=1 $X=5.08
+ $Y=1.485 $X2=5.08 $Y2=1.485
r149 43 65 3.70735 $w=2.5e-07 $l=1.20208e-07 $layer=LI1_cond $X=6.025 $Y=1.485
+ $X2=6.11 $Y2=1.4
r150 43 49 9.25447 $w=3.28e-07 $l=2.65e-07 $layer=LI1_cond $X=6.025 $Y=1.485
+ $X2=5.76 $Y2=1.485
r151 41 42 32.4152 $w=1.71e-07 $l=1.15e-07 $layer=POLY_cond $X=4.555 $Y=1.575
+ $X2=4.555 $Y2=1.69
r152 37 73 21.2229 $w=1.5e-07 $l=1.65e-07 $layer=POLY_cond $X=5.85 $Y=1.32
+ $X2=5.85 $Y2=1.485
r153 37 39 297.404 $w=1.5e-07 $l=5.8e-07 $layer=POLY_cond $X=5.85 $Y=1.32
+ $X2=5.85 $Y2=0.74
r154 33 71 16.9318 $w=1.8e-07 $l=1.65e-07 $layer=POLY_cond $X=5.455 $Y=1.65
+ $X2=5.455 $Y2=1.485
r155 33 35 291.532 $w=1.8e-07 $l=7.5e-07 $layer=POLY_cond $X=5.455 $Y=1.65
+ $X2=5.455 $Y2=2.4
r156 29 70 21.2229 $w=1.5e-07 $l=1.65e-07 $layer=POLY_cond $X=5.42 $Y=1.32
+ $X2=5.42 $Y2=1.485
r157 29 31 297.404 $w=1.5e-07 $l=5.8e-07 $layer=POLY_cond $X=5.42 $Y=1.32
+ $X2=5.42 $Y2=0.74
r158 25 68 16.9318 $w=1.8e-07 $l=1.65e-07 $layer=POLY_cond $X=5.005 $Y=1.65
+ $X2=5.005 $Y2=1.485
r159 25 27 291.532 $w=1.8e-07 $l=7.5e-07 $layer=POLY_cond $X=5.005 $Y=1.65
+ $X2=5.005 $Y2=2.4
r160 21 66 21.2229 $w=1.5e-07 $l=1.65e-07 $layer=POLY_cond $X=4.99 $Y=1.32
+ $X2=4.99 $Y2=1.485
r161 21 23 297.404 $w=1.5e-07 $l=5.8e-07 $layer=POLY_cond $X=4.99 $Y=1.32
+ $X2=4.99 $Y2=0.74
r162 20 41 5.94057 $w=1.5e-07 $l=9e-08 $layer=POLY_cond $X=4.645 $Y=1.575
+ $X2=4.555 $Y2=1.575
r163 20 67 138.447 $w=1.5e-07 $l=2.7e-07 $layer=POLY_cond $X=4.645 $Y=1.575
+ $X2=4.915 $Y2=1.575
r164 15 41 21.9913 $w=1.71e-07 $l=7.74597e-08 $layer=POLY_cond $X=4.56 $Y=1.5
+ $X2=4.555 $Y2=1.575
r165 15 17 389.702 $w=1.5e-07 $l=7.6e-07 $layer=POLY_cond $X=4.56 $Y=1.5
+ $X2=4.56 $Y2=0.74
r166 12 42 20.2514 $w=1.8e-07 $l=7.5e-08 $layer=POLY_cond $X=4.555 $Y=1.765
+ $X2=4.555 $Y2=1.69
r167 12 14 170.039 $w=1.8e-07 $l=6.35e-07 $layer=POLY_cond $X=4.555 $Y=1.765
+ $X2=4.555 $Y2=2.4
r168 10 42 5.94057 $w=1.5e-07 $l=9e-08 $layer=POLY_cond $X=4.465 $Y=1.69
+ $X2=4.555 $Y2=1.69
r169 10 11 138.447 $w=1.5e-07 $l=2.7e-07 $layer=POLY_cond $X=4.465 $Y=1.69
+ $X2=4.195 $Y2=1.69
r170 7 11 27.2212 $w=1.5e-07 $l=1.21861e-07 $layer=POLY_cond $X=4.105 $Y=1.765
+ $X2=4.195 $Y2=1.69
r171 7 9 170.039 $w=1.8e-07 $l=6.35e-07 $layer=POLY_cond $X=4.105 $Y=1.765
+ $X2=4.105 $Y2=2.4
r172 2 63 300 $w=1.7e-07 $l=2.01494e-07 $layer=licon1_PDIFF $count=2 $X=6.515
+ $Y=2.12 $X2=6.65 $Y2=2.265
r173 1 59 91 $w=1.7e-07 $l=2.03286e-07 $layer=licon1_NDIFF $count=2 $X=6.355
+ $Y=0.37 $X2=6.495 $Y2=0.515
.ends

.subckt PM_SKY130_FD_SC_MS__A21BOI_4%B1_N 3 7 11 13 14 15 22
c36 22 0 1.00768e-19 $X=6.53 $Y=1.655
c37 15 0 1.04161e-19 $X=7.44 $Y=1.665
r38 22 24 55.6154 $w=2.99e-07 $l=3.45e-07 $layer=POLY_cond $X=6.53 $Y=1.655
+ $X2=6.875 $Y2=1.655
r39 20 22 16.9264 $w=2.99e-07 $l=1.05e-07 $layer=POLY_cond $X=6.425 $Y=1.655
+ $X2=6.53 $Y2=1.655
r40 14 15 16.7628 $w=3.28e-07 $l=4.8e-07 $layer=LI1_cond $X=6.96 $Y=1.655
+ $X2=7.44 $Y2=1.655
r41 13 14 16.7628 $w=3.28e-07 $l=4.8e-07 $layer=LI1_cond $X=6.48 $Y=1.655
+ $X2=6.96 $Y2=1.655
r42 13 22 145.28 $w=1.7e-07 $l=1.7e-07 $layer=licon1_POLY $count=1 $X=6.53
+ $Y=1.655 $X2=6.53 $Y2=1.655
r43 9 24 14.6425 $w=1.8e-07 $l=1.65e-07 $layer=POLY_cond $X=6.875 $Y=1.82
+ $X2=6.875 $Y2=1.655
r44 9 11 279.871 $w=1.8e-07 $l=7.2e-07 $layer=POLY_cond $X=6.875 $Y=1.82
+ $X2=6.875 $Y2=2.54
r45 5 20 14.6425 $w=1.8e-07 $l=1.65e-07 $layer=POLY_cond $X=6.425 $Y=1.82
+ $X2=6.425 $Y2=1.655
r46 5 7 279.871 $w=1.8e-07 $l=7.2e-07 $layer=POLY_cond $X=6.425 $Y=1.82
+ $X2=6.425 $Y2=2.54
r47 1 20 23.3746 $w=2.99e-07 $l=2.26164e-07 $layer=POLY_cond $X=6.28 $Y=1.49
+ $X2=6.425 $Y2=1.655
r48 1 3 384.574 $w=1.5e-07 $l=7.5e-07 $layer=POLY_cond $X=6.28 $Y=1.49 $X2=6.28
+ $Y2=0.74
.ends

.subckt PM_SKY130_FD_SC_MS__A21BOI_4%A_31_368# 1 2 3 4 5 6 7 22 24 26 30 32 36
+ 38 42 44 46 49 50 51 54 56 60 67 69 71 74
c102 54 0 3.90708e-20 $X=4.78 $Y=2.325
c103 30 0 2.95431e-19 $X=1.18 $Y=2.815
r104 60 63 34.1617 $w=2.78e-07 $l=8.3e-07 $layer=LI1_cond $X=5.705 $Y=1.985
+ $X2=5.705 $Y2=2.815
r105 58 63 3.70428 $w=2.78e-07 $l=9e-08 $layer=LI1_cond $X=5.705 $Y=2.905
+ $X2=5.705 $Y2=2.815
r106 57 74 6.59134 $w=1.7e-07 $l=1.15e-07 $layer=LI1_cond $X=4.895 $Y=2.99
+ $X2=4.78 $Y2=2.99
r107 56 58 7.36005 $w=1.7e-07 $l=1.77482e-07 $layer=LI1_cond $X=5.565 $Y=2.99
+ $X2=5.705 $Y2=2.905
r108 56 57 43.7112 $w=1.68e-07 $l=6.7e-07 $layer=LI1_cond $X=5.565 $Y=2.99
+ $X2=4.895 $Y2=2.99
r109 52 74 0.280307 $w=2.3e-07 $l=8.5e-08 $layer=LI1_cond $X=4.78 $Y=2.905
+ $X2=4.78 $Y2=2.99
r110 52 54 29.0616 $w=2.28e-07 $l=5.8e-07 $layer=LI1_cond $X=4.78 $Y=2.905
+ $X2=4.78 $Y2=2.325
r111 50 74 6.59134 $w=1.7e-07 $l=1.15e-07 $layer=LI1_cond $X=4.665 $Y=2.99
+ $X2=4.78 $Y2=2.99
r112 50 51 43.7112 $w=1.68e-07 $l=6.7e-07 $layer=LI1_cond $X=4.665 $Y=2.99
+ $X2=3.995 $Y2=2.99
r113 47 51 7.36005 $w=1.7e-07 $l=1.77482e-07 $layer=LI1_cond $X=3.855 $Y=2.905
+ $X2=3.995 $Y2=2.99
r114 47 49 3.70428 $w=2.78e-07 $l=9e-08 $layer=LI1_cond $X=3.855 $Y=2.905
+ $X2=3.855 $Y2=2.815
r115 46 73 2.78046 $w=2.8e-07 $l=8.5e-08 $layer=LI1_cond $X=3.855 $Y=2.12
+ $X2=3.855 $Y2=2.035
r116 46 49 28.6053 $w=2.78e-07 $l=6.95e-07 $layer=LI1_cond $X=3.855 $Y=2.12
+ $X2=3.855 $Y2=2.815
r117 45 71 8.61065 $w=1.7e-07 $l=1.65e-07 $layer=LI1_cond $X=3.145 $Y=2.035
+ $X2=2.98 $Y2=2.035
r118 44 73 4.57959 $w=1.7e-07 $l=1.4e-07 $layer=LI1_cond $X=3.715 $Y=2.035
+ $X2=3.855 $Y2=2.035
r119 44 45 37.1872 $w=1.68e-07 $l=5.7e-07 $layer=LI1_cond $X=3.715 $Y=2.035
+ $X2=3.145 $Y2=2.035
r120 40 71 0.89609 $w=3.3e-07 $l=8.5e-08 $layer=LI1_cond $X=2.98 $Y=2.12
+ $X2=2.98 $Y2=2.035
r121 40 42 24.2711 $w=3.28e-07 $l=6.95e-07 $layer=LI1_cond $X=2.98 $Y=2.12
+ $X2=2.98 $Y2=2.815
r122 39 69 5.16603 $w=1.7e-07 $l=1.12916e-07 $layer=LI1_cond $X=2.165 $Y=2.035
+ $X2=2.08 $Y2=1.97
r123 38 71 8.61065 $w=1.7e-07 $l=1.65e-07 $layer=LI1_cond $X=2.815 $Y=2.035
+ $X2=2.98 $Y2=2.035
r124 38 39 42.4064 $w=1.68e-07 $l=6.5e-07 $layer=LI1_cond $X=2.815 $Y=2.035
+ $X2=2.165 $Y2=2.035
r125 34 69 1.34256 $w=1.7e-07 $l=1.5e-07 $layer=LI1_cond $X=2.08 $Y=2.12
+ $X2=2.08 $Y2=1.97
r126 34 36 18.2674 $w=1.68e-07 $l=2.8e-07 $layer=LI1_cond $X=2.08 $Y=2.12
+ $X2=2.08 $Y2=2.4
r127 33 67 5.16603 $w=1.7e-07 $l=8.5e-08 $layer=LI1_cond $X=1.265 $Y=2.035
+ $X2=1.18 $Y2=2.035
r128 32 69 5.16603 $w=1.7e-07 $l=1.12916e-07 $layer=LI1_cond $X=1.995 $Y=2.035
+ $X2=2.08 $Y2=1.97
r129 32 33 47.6257 $w=1.68e-07 $l=7.3e-07 $layer=LI1_cond $X=1.995 $Y=2.035
+ $X2=1.265 $Y2=2.035
r130 28 67 1.34256 $w=1.7e-07 $l=8.5e-08 $layer=LI1_cond $X=1.18 $Y=2.12
+ $X2=1.18 $Y2=2.035
r131 28 30 45.3422 $w=1.68e-07 $l=6.95e-07 $layer=LI1_cond $X=1.18 $Y=2.12
+ $X2=1.18 $Y2=2.815
r132 27 65 4.25188 $w=1.7e-07 $l=1.25e-07 $layer=LI1_cond $X=0.365 $Y=2.035
+ $X2=0.24 $Y2=2.035
r133 26 67 5.16603 $w=1.7e-07 $l=8.5e-08 $layer=LI1_cond $X=1.095 $Y=2.035
+ $X2=1.18 $Y2=2.035
r134 26 27 47.6257 $w=1.68e-07 $l=7.3e-07 $layer=LI1_cond $X=1.095 $Y=2.035
+ $X2=0.365 $Y2=2.035
r135 22 65 2.89128 $w=2.5e-07 $l=8.5e-08 $layer=LI1_cond $X=0.24 $Y=2.12
+ $X2=0.24 $Y2=2.035
r136 22 24 32.0379 $w=2.48e-07 $l=6.95e-07 $layer=LI1_cond $X=0.24 $Y=2.12
+ $X2=0.24 $Y2=2.815
r137 7 63 400 $w=1.7e-07 $l=1.04031e-06 $layer=licon1_PDIFF $count=1 $X=5.545
+ $Y=1.84 $X2=5.68 $Y2=2.815
r138 7 60 400 $w=1.7e-07 $l=2.01494e-07 $layer=licon1_PDIFF $count=1 $X=5.545
+ $Y=1.84 $X2=5.68 $Y2=1.985
r139 6 54 300 $w=1.7e-07 $l=5.48361e-07 $layer=licon1_PDIFF $count=2 $X=4.645
+ $Y=1.84 $X2=4.78 $Y2=2.325
r140 5 73 400 $w=1.7e-07 $l=3.35783e-07 $layer=licon1_PDIFF $count=1 $X=3.745
+ $Y=1.84 $X2=3.88 $Y2=2.115
r141 5 49 400 $w=1.7e-07 $l=1.04031e-06 $layer=licon1_PDIFF $count=1 $X=3.745
+ $Y=1.84 $X2=3.88 $Y2=2.815
r142 4 71 400 $w=1.7e-07 $l=3.35783e-07 $layer=licon1_PDIFF $count=1 $X=2.845
+ $Y=1.84 $X2=2.98 $Y2=2.115
r143 4 42 400 $w=1.7e-07 $l=1.04031e-06 $layer=licon1_PDIFF $count=1 $X=2.845
+ $Y=1.84 $X2=2.98 $Y2=2.815
r144 3 69 600 $w=1.7e-07 $l=2.01494e-07 $layer=licon1_PDIFF $count=1 $X=1.945
+ $Y=1.84 $X2=2.08 $Y2=1.985
r145 3 36 300 $w=1.7e-07 $l=6.23859e-07 $layer=licon1_PDIFF $count=2 $X=1.945
+ $Y=1.84 $X2=2.08 $Y2=2.4
r146 2 67 400 $w=1.7e-07 $l=3.35783e-07 $layer=licon1_PDIFF $count=1 $X=1.045
+ $Y=1.84 $X2=1.18 $Y2=2.115
r147 2 30 400 $w=1.7e-07 $l=1.04031e-06 $layer=licon1_PDIFF $count=1 $X=1.045
+ $Y=1.84 $X2=1.18 $Y2=2.815
r148 1 65 400 $w=1.7e-07 $l=3.31662e-07 $layer=licon1_PDIFF $count=1 $X=0.155
+ $Y=1.84 $X2=0.28 $Y2=2.115
r149 1 24 400 $w=1.7e-07 $l=1.03562e-06 $layer=licon1_PDIFF $count=1 $X=0.155
+ $Y=1.84 $X2=0.28 $Y2=2.815
.ends

.subckt PM_SKY130_FD_SC_MS__A21BOI_4%VPWR 1 2 3 4 5 6 21 25 29 33 37 41 44 45 47
+ 48 50 51 53 54 55 57 62 84 85 88 91
r109 91 92 9.3 $w=1.7e-07 $l=1.7e-07 $layer=mcon $count=1 $X=1.68 $Y=3.33
+ $X2=1.68 $Y2=3.33
r110 88 89 9.3 $w=1.7e-07 $l=1.7e-07 $layer=mcon $count=1 $X=0.72 $Y=3.33
+ $X2=0.72 $Y2=3.33
r111 84 85 9.3 $w=1.7e-07 $l=1.7e-07 $layer=mcon $count=1 $X=7.44 $Y=3.33
+ $X2=7.44 $Y2=3.33
r112 82 85 0.133793 $w=4.9e-07 $l=4.8e-07 $layer=MET1_cond $X=6.96 $Y=3.33
+ $X2=7.44 $Y2=3.33
r113 81 82 4.65 $w=1.7e-07 $l=3.4e-07 $layer=mcon $count=2 $X=6.96 $Y=3.33
+ $X2=6.96 $Y2=3.33
r114 79 82 0.267585 $w=4.9e-07 $l=9.6e-07 $layer=MET1_cond $X=6 $Y=3.33 $X2=6.96
+ $Y2=3.33
r115 78 79 3.1 $w=1.7e-07 $l=5.1e-07 $layer=mcon $count=3 $X=6 $Y=3.33 $X2=6
+ $Y2=3.33
r116 75 78 156.578 $w=1.68e-07 $l=2.4e-06 $layer=LI1_cond $X=3.6 $Y=3.33 $X2=6
+ $Y2=3.33
r117 75 76 3.1 $w=1.7e-07 $l=5.1e-07 $layer=mcon $count=3 $X=3.6 $Y=3.33 $X2=3.6
+ $Y2=3.33
r118 73 76 0.133793 $w=4.9e-07 $l=4.8e-07 $layer=MET1_cond $X=3.12 $Y=3.33
+ $X2=3.6 $Y2=3.33
r119 72 73 4.65 $w=1.7e-07 $l=3.4e-07 $layer=mcon $count=2 $X=3.12 $Y=3.33
+ $X2=3.12 $Y2=3.33
r120 70 73 0.267585 $w=4.9e-07 $l=9.6e-07 $layer=MET1_cond $X=2.16 $Y=3.33
+ $X2=3.12 $Y2=3.33
r121 70 92 0.133793 $w=4.9e-07 $l=4.8e-07 $layer=MET1_cond $X=2.16 $Y=3.33
+ $X2=1.68 $Y2=3.33
r122 69 70 9.3 $w=1.7e-07 $l=1.7e-07 $layer=mcon $count=1 $X=2.16 $Y=3.33
+ $X2=2.16 $Y2=3.33
r123 67 91 8.61065 $w=1.7e-07 $l=1.65e-07 $layer=LI1_cond $X=1.795 $Y=3.33
+ $X2=1.63 $Y2=3.33
r124 67 69 23.8128 $w=1.68e-07 $l=3.65e-07 $layer=LI1_cond $X=1.795 $Y=3.33
+ $X2=2.16 $Y2=3.33
r125 66 92 0.133793 $w=4.9e-07 $l=4.8e-07 $layer=MET1_cond $X=1.2 $Y=3.33
+ $X2=1.68 $Y2=3.33
r126 66 89 0.133793 $w=4.9e-07 $l=4.8e-07 $layer=MET1_cond $X=1.2 $Y=3.33
+ $X2=0.72 $Y2=3.33
r127 65 66 9.3 $w=1.7e-07 $l=1.7e-07 $layer=mcon $count=1 $X=1.2 $Y=3.33 $X2=1.2
+ $Y2=3.33
r128 63 88 8.61065 $w=1.7e-07 $l=1.65e-07 $layer=LI1_cond $X=0.895 $Y=3.33
+ $X2=0.73 $Y2=3.33
r129 63 65 19.8984 $w=1.68e-07 $l=3.05e-07 $layer=LI1_cond $X=0.895 $Y=3.33
+ $X2=1.2 $Y2=3.33
r130 62 91 8.61065 $w=1.7e-07 $l=1.65e-07 $layer=LI1_cond $X=1.465 $Y=3.33
+ $X2=1.63 $Y2=3.33
r131 62 65 17.2888 $w=1.68e-07 $l=2.65e-07 $layer=LI1_cond $X=1.465 $Y=3.33
+ $X2=1.2 $Y2=3.33
r132 60 89 0.133793 $w=4.9e-07 $l=4.8e-07 $layer=MET1_cond $X=0.24 $Y=3.33
+ $X2=0.72 $Y2=3.33
r133 59 60 9.3 $w=1.7e-07 $l=1.7e-07 $layer=mcon $count=1 $X=0.24 $Y=3.33
+ $X2=0.24 $Y2=3.33
r134 57 88 8.61065 $w=1.7e-07 $l=1.65e-07 $layer=LI1_cond $X=0.565 $Y=3.33
+ $X2=0.73 $Y2=3.33
r135 57 59 21.2032 $w=1.68e-07 $l=3.25e-07 $layer=LI1_cond $X=0.565 $Y=3.33
+ $X2=0.24 $Y2=3.33
r136 55 79 0.602067 $w=4.9e-07 $l=2.16e-06 $layer=MET1_cond $X=3.84 $Y=3.33
+ $X2=6 $Y2=3.33
r137 55 76 0.0668963 $w=4.9e-07 $l=2.4e-07 $layer=MET1_cond $X=3.84 $Y=3.33
+ $X2=3.6 $Y2=3.33
r138 53 81 3.58824 $w=1.68e-07 $l=5.5e-08 $layer=LI1_cond $X=7.015 $Y=3.33
+ $X2=6.96 $Y2=3.33
r139 53 54 7.02821 $w=1.7e-07 $l=1.25e-07 $layer=LI1_cond $X=7.015 $Y=3.33
+ $X2=7.14 $Y2=3.33
r140 52 84 11.4171 $w=1.68e-07 $l=1.75e-07 $layer=LI1_cond $X=7.265 $Y=3.33
+ $X2=7.44 $Y2=3.33
r141 52 54 7.02821 $w=1.7e-07 $l=1.25e-07 $layer=LI1_cond $X=7.265 $Y=3.33
+ $X2=7.14 $Y2=3.33
r142 50 78 2.28342 $w=1.68e-07 $l=3.5e-08 $layer=LI1_cond $X=6.035 $Y=3.33 $X2=6
+ $Y2=3.33
r143 50 51 8.61065 $w=1.7e-07 $l=1.65e-07 $layer=LI1_cond $X=6.035 $Y=3.33
+ $X2=6.2 $Y2=3.33
r144 49 81 38.8182 $w=1.68e-07 $l=5.95e-07 $layer=LI1_cond $X=6.365 $Y=3.33
+ $X2=6.96 $Y2=3.33
r145 49 51 8.61065 $w=1.7e-07 $l=1.65e-07 $layer=LI1_cond $X=6.365 $Y=3.33
+ $X2=6.2 $Y2=3.33
r146 47 72 14.6791 $w=1.68e-07 $l=2.25e-07 $layer=LI1_cond $X=3.345 $Y=3.33
+ $X2=3.12 $Y2=3.33
r147 47 48 5.16603 $w=1.7e-07 $l=8.5e-08 $layer=LI1_cond $X=3.345 $Y=3.33
+ $X2=3.43 $Y2=3.33
r148 46 75 5.54545 $w=1.68e-07 $l=8.5e-08 $layer=LI1_cond $X=3.515 $Y=3.33
+ $X2=3.6 $Y2=3.33
r149 46 48 5.16603 $w=1.7e-07 $l=8.5e-08 $layer=LI1_cond $X=3.515 $Y=3.33
+ $X2=3.43 $Y2=3.33
r150 44 69 13.3743 $w=1.68e-07 $l=2.05e-07 $layer=LI1_cond $X=2.365 $Y=3.33
+ $X2=2.16 $Y2=3.33
r151 44 45 7.02821 $w=1.7e-07 $l=1.25e-07 $layer=LI1_cond $X=2.365 $Y=3.33
+ $X2=2.49 $Y2=3.33
r152 43 72 32.9465 $w=1.68e-07 $l=5.05e-07 $layer=LI1_cond $X=2.615 $Y=3.33
+ $X2=3.12 $Y2=3.33
r153 43 45 7.02821 $w=1.7e-07 $l=1.25e-07 $layer=LI1_cond $X=2.615 $Y=3.33
+ $X2=2.49 $Y2=3.33
r154 39 54 0.00168595 $w=2.5e-07 $l=8.5e-08 $layer=LI1_cond $X=7.14 $Y=3.245
+ $X2=7.14 $Y2=3.33
r155 39 41 45.1758 $w=2.48e-07 $l=9.8e-07 $layer=LI1_cond $X=7.14 $Y=3.245
+ $X2=7.14 $Y2=2.265
r156 35 51 0.89609 $w=3.3e-07 $l=8.5e-08 $layer=LI1_cond $X=6.2 $Y=3.245 $X2=6.2
+ $Y2=3.33
r157 35 37 27.938 $w=3.28e-07 $l=8e-07 $layer=LI1_cond $X=6.2 $Y=3.245 $X2=6.2
+ $Y2=2.445
r158 31 48 1.34256 $w=1.7e-07 $l=8.5e-08 $layer=LI1_cond $X=3.43 $Y=3.245
+ $X2=3.43 $Y2=3.33
r159 31 33 51.5401 $w=1.68e-07 $l=7.9e-07 $layer=LI1_cond $X=3.43 $Y=3.245
+ $X2=3.43 $Y2=2.455
r160 27 45 0.00168595 $w=2.5e-07 $l=8.5e-08 $layer=LI1_cond $X=2.49 $Y=3.245
+ $X2=2.49 $Y2=3.33
r161 27 29 36.4172 $w=2.48e-07 $l=7.9e-07 $layer=LI1_cond $X=2.49 $Y=3.245
+ $X2=2.49 $Y2=2.455
r162 23 91 0.89609 $w=3.3e-07 $l=8.5e-08 $layer=LI1_cond $X=1.63 $Y=3.245
+ $X2=1.63 $Y2=3.33
r163 23 25 27.5888 $w=3.28e-07 $l=7.9e-07 $layer=LI1_cond $X=1.63 $Y=3.245
+ $X2=1.63 $Y2=2.455
r164 19 88 0.89609 $w=3.3e-07 $l=8.5e-08 $layer=LI1_cond $X=0.73 $Y=3.245
+ $X2=0.73 $Y2=3.33
r165 19 21 27.5888 $w=3.28e-07 $l=7.9e-07 $layer=LI1_cond $X=0.73 $Y=3.245
+ $X2=0.73 $Y2=2.455
r166 6 41 300 $w=1.7e-07 $l=2.01494e-07 $layer=licon1_PDIFF $count=2 $X=6.965
+ $Y=2.12 $X2=7.1 $Y2=2.265
r167 5 37 300 $w=1.7e-07 $l=3.82426e-07 $layer=licon1_PDIFF $count=2 $X=6.075
+ $Y=2.12 $X2=6.2 $Y2=2.445
r168 4 33 300 $w=1.7e-07 $l=6.79154e-07 $layer=licon1_PDIFF $count=2 $X=3.295
+ $Y=1.84 $X2=3.43 $Y2=2.455
r169 3 29 300 $w=1.7e-07 $l=6.79154e-07 $layer=licon1_PDIFF $count=2 $X=2.395
+ $Y=1.84 $X2=2.53 $Y2=2.455
r170 2 25 300 $w=1.7e-07 $l=6.79154e-07 $layer=licon1_PDIFF $count=2 $X=1.495
+ $Y=1.84 $X2=1.63 $Y2=2.455
r171 1 21 300 $w=1.7e-07 $l=6.79154e-07 $layer=licon1_PDIFF $count=2 $X=0.595
+ $Y=1.84 $X2=0.73 $Y2=2.455
.ends

.subckt PM_SKY130_FD_SC_MS__A21BOI_4%Y 1 2 3 4 5 6 19 21 23 25 29 31 33 35 37 41
+ 43 48 56 57
c110 43 0 1.44963e-19 $X=0.825 $Y=0.855
c111 21 0 9.07735e-20 $X=3.965 $Y=1.175
r112 56 57 6.53256 $w=6.91e-07 $l=3.7e-07 $layer=LI1_cond $X=4.412 $Y=1.295
+ $X2=4.412 $Y2=1.665
r113 56 65 2.11867 $w=6.91e-07 $l=1.2e-07 $layer=LI1_cond $X=4.412 $Y=1.295
+ $X2=4.412 $Y2=1.175
r114 51 52 7.85757 $w=3.28e-07 $l=2.25e-07 $layer=LI1_cond $X=1.645 $Y=0.95
+ $X2=1.645 $Y2=1.175
r115 48 51 3.31764 $w=3.28e-07 $l=9.5e-08 $layer=LI1_cond $X=1.645 $Y=0.855
+ $X2=1.645 $Y2=0.95
r116 43 46 4.37928 $w=2.48e-07 $l=9.5e-08 $layer=LI1_cond $X=0.825 $Y=0.855
+ $X2=0.825 $Y2=0.95
r117 39 41 21.4354 $w=2.48e-07 $l=4.65e-07 $layer=LI1_cond $X=5.595 $Y=0.98
+ $X2=5.595 $Y2=0.515
r118 35 55 2.6405 $w=3.3e-07 $l=8.5e-08 $layer=LI1_cond $X=5.23 $Y=1.99 $X2=5.23
+ $Y2=1.905
r119 35 37 23.0489 $w=3.28e-07 $l=6.6e-07 $layer=LI1_cond $X=5.23 $Y=1.99
+ $X2=5.23 $Y2=2.65
r120 34 65 1.94211 $w=6.91e-07 $l=4.99984e-07 $layer=LI1_cond $X=4.86 $Y=1.065
+ $X2=4.412 $Y2=1.175
r121 33 39 7.14316 $w=1.7e-07 $l=1.62019e-07 $layer=LI1_cond $X=5.47 $Y=1.065
+ $X2=5.595 $Y2=0.98
r122 33 34 39.7968 $w=1.68e-07 $l=6.1e-07 $layer=LI1_cond $X=5.47 $Y=1.065
+ $X2=4.86 $Y2=1.065
r123 32 74 1.14761 $w=6.91e-07 $l=6.5e-08 $layer=LI1_cond $X=4.412 $Y=1.905
+ $X2=4.412 $Y2=1.97
r124 32 57 4.23734 $w=6.91e-07 $l=2.4e-07 $layer=LI1_cond $X=4.412 $Y=1.905
+ $X2=4.412 $Y2=1.665
r125 31 55 5.12568 $w=1.7e-07 $l=1.65e-07 $layer=LI1_cond $X=5.065 $Y=1.905
+ $X2=5.23 $Y2=1.905
r126 31 32 20.877 $w=1.68e-07 $l=3.2e-07 $layer=LI1_cond $X=5.065 $Y=1.905
+ $X2=4.745 $Y2=1.905
r127 27 34 6.74026 $w=6.91e-07 $l=1.62019e-07 $layer=LI1_cond $X=4.735 $Y=0.98
+ $X2=4.86 $Y2=1.065
r128 27 29 21.4354 $w=2.48e-07 $l=4.65e-07 $layer=LI1_cond $X=4.735 $Y=0.98
+ $X2=4.735 $Y2=0.515
r129 23 74 3.69776 $w=6.91e-07 $l=9.14549e-08 $layer=LI1_cond $X=4.33 $Y=1.99
+ $X2=4.412 $Y2=1.97
r130 23 25 23.0489 $w=3.28e-07 $l=6.6e-07 $layer=LI1_cond $X=4.33 $Y=1.99
+ $X2=4.33 $Y2=2.65
r131 22 52 4.62375 $w=1.7e-07 $l=1.65e-07 $layer=LI1_cond $X=1.81 $Y=1.175
+ $X2=1.645 $Y2=1.175
r132 21 65 9.23635 $w=1.7e-07 $l=4.47e-07 $layer=LI1_cond $X=3.965 $Y=1.175
+ $X2=4.412 $Y2=1.175
r133 21 22 140.594 $w=1.68e-07 $l=2.155e-06 $layer=LI1_cond $X=3.965 $Y=1.175
+ $X2=1.81 $Y2=1.175
r134 20 43 2.99516 $w=1.7e-07 $l=1.25e-07 $layer=LI1_cond $X=0.95 $Y=0.855
+ $X2=0.825 $Y2=0.855
r135 19 48 4.62375 $w=1.7e-07 $l=1.65e-07 $layer=LI1_cond $X=1.48 $Y=0.855
+ $X2=1.645 $Y2=0.855
r136 19 20 34.5775 $w=1.68e-07 $l=5.3e-07 $layer=LI1_cond $X=1.48 $Y=0.855
+ $X2=0.95 $Y2=0.855
r137 6 55 400 $w=1.7e-07 $l=1.89143e-07 $layer=licon1_PDIFF $count=1 $X=5.095
+ $Y=1.84 $X2=5.23 $Y2=1.97
r138 6 37 400 $w=1.7e-07 $l=8.749e-07 $layer=licon1_PDIFF $count=1 $X=5.095
+ $Y=1.84 $X2=5.23 $Y2=2.65
r139 5 74 400 $w=1.7e-07 $l=1.89143e-07 $layer=licon1_PDIFF $count=1 $X=4.195
+ $Y=1.84 $X2=4.33 $Y2=1.97
r140 5 25 400 $w=1.7e-07 $l=8.749e-07 $layer=licon1_PDIFF $count=1 $X=4.195
+ $Y=1.84 $X2=4.33 $Y2=2.65
r141 4 41 91 $w=1.7e-07 $l=2.03286e-07 $layer=licon1_NDIFF $count=2 $X=5.495
+ $Y=0.37 $X2=5.635 $Y2=0.515
r142 3 29 91 $w=1.7e-07 $l=2.03286e-07 $layer=licon1_NDIFF $count=2 $X=4.635
+ $Y=0.37 $X2=4.775 $Y2=0.515
r143 2 51 182 $w=1.7e-07 $l=6.4622e-07 $layer=licon1_NDIFF $count=1 $X=1.505
+ $Y=0.37 $X2=1.645 $Y2=0.95
r144 1 46 182 $w=1.7e-07 $l=6.4622e-07 $layer=licon1_NDIFF $count=1 $X=0.645
+ $Y=0.37 $X2=0.785 $Y2=0.95
.ends

.subckt PM_SKY130_FD_SC_MS__A21BOI_4%A_46_74# 1 2 3 4 5 18 26 27 28 31 33 38
r54 38 40 5.07075 $w=2.48e-07 $l=1.1e-07 $layer=LI1_cond $X=3.835 $Y=0.725
+ $X2=3.835 $Y2=0.835
r55 33 35 7.17647 $w=1.68e-07 $l=1.1e-07 $layer=LI1_cond $X=2.935 $Y=0.725
+ $X2=2.935 $Y2=0.835
r56 29 35 0.716491 $w=1.7e-07 $l=8.5e-08 $layer=LI1_cond $X=3.02 $Y=0.835
+ $X2=2.935 $Y2=0.835
r57 28 40 2.99516 $w=1.7e-07 $l=1.25e-07 $layer=LI1_cond $X=3.71 $Y=0.835
+ $X2=3.835 $Y2=0.835
r58 28 29 45.016 $w=1.68e-07 $l=6.9e-07 $layer=LI1_cond $X=3.71 $Y=0.835
+ $X2=3.02 $Y2=0.835
r59 26 35 0.716491 $w=1.7e-07 $l=8.5e-08 $layer=LI1_cond $X=2.85 $Y=0.835
+ $X2=2.935 $Y2=0.835
r60 26 27 45.016 $w=1.68e-07 $l=6.9e-07 $layer=LI1_cond $X=2.85 $Y=0.835
+ $X2=2.16 $Y2=0.835
r61 23 27 6.81649 $w=1.7e-07 $l=1.20208e-07 $layer=LI1_cond $X=2.075 $Y=0.75
+ $X2=2.16 $Y2=0.835
r62 23 25 1.63102 $w=1.68e-07 $l=2.5e-08 $layer=LI1_cond $X=2.075 $Y=0.75
+ $X2=2.075 $Y2=0.725
r63 22 25 8.15508 $w=1.68e-07 $l=1.25e-07 $layer=LI1_cond $X=2.075 $Y=0.6
+ $X2=2.075 $Y2=0.725
r64 19 31 3.97509 $w=2.5e-07 $l=1.65e-07 $layer=LI1_cond $X=0.52 $Y=0.475
+ $X2=0.355 $Y2=0.475
r65 19 21 32.0379 $w=2.48e-07 $l=6.95e-07 $layer=LI1_cond $X=0.52 $Y=0.475
+ $X2=1.215 $Y2=0.475
r66 18 22 7.14316 $w=2.5e-07 $l=1.62019e-07 $layer=LI1_cond $X=1.99 $Y=0.475
+ $X2=2.075 $Y2=0.6
r67 18 21 35.7257 $w=2.48e-07 $l=7.75e-07 $layer=LI1_cond $X=1.99 $Y=0.475
+ $X2=1.215 $Y2=0.475
r68 5 38 182 $w=1.7e-07 $l=4.19196e-07 $layer=licon1_NDIFF $count=1 $X=3.655
+ $Y=0.37 $X2=3.795 $Y2=0.725
r69 4 33 182 $w=1.7e-07 $l=4.19196e-07 $layer=licon1_NDIFF $count=1 $X=2.795
+ $Y=0.37 $X2=2.935 $Y2=0.725
r70 3 25 182 $w=1.7e-07 $l=4.19196e-07 $layer=licon1_NDIFF $count=1 $X=1.935
+ $Y=0.37 $X2=2.075 $Y2=0.725
r71 2 21 182 $w=1.7e-07 $l=2.03286e-07 $layer=licon1_NDIFF $count=1 $X=1.075
+ $Y=0.37 $X2=1.215 $Y2=0.515
r72 1 31 91 $w=1.7e-07 $l=1.97864e-07 $layer=licon1_NDIFF $count=2 $X=0.23
+ $Y=0.37 $X2=0.355 $Y2=0.515
.ends

.subckt PM_SKY130_FD_SC_MS__A21BOI_4%VGND 1 2 3 4 5 18 22 26 28 32 36 39 40 42
+ 43 44 45 46 61 71 72 75 78
r98 78 79 9.3 $w=1.7e-07 $l=1.7e-07 $layer=mcon $count=1 $X=6 $Y=0 $X2=6 $Y2=0
r99 75 76 4.65 $w=1.7e-07 $l=3.4e-07 $layer=mcon $count=2 $X=5.04 $Y=0 $X2=5.04
+ $Y2=0
r100 71 72 6.2 $w=1.7e-07 $l=2.55e-07 $layer=mcon $count=1 $X=7.44 $Y=0 $X2=7.44
+ $Y2=0
r101 69 72 0.267585 $w=4.9e-07 $l=9.6e-07 $layer=MET1_cond $X=6.48 $Y=0 $X2=7.44
+ $Y2=0
r102 69 79 0.133793 $w=4.9e-07 $l=4.8e-07 $layer=MET1_cond $X=6.48 $Y=0 $X2=6
+ $Y2=0