* File: sky130_fd_sc_ms__dfrtp_4.pex.spice
* Created: Fri Aug 28 17:23:10 2020
* Program "Calibre xRC"
* Version "v2018.4_34.26"
* Nominal Temperature: 27C
* Circuit Temperature: 27C
* 
.subckt PM_SKY130_FD_SC_MS__DFRTP_4%D 2 4 7 11 13 14 15 16 21 22 25
r36 25 27 35.4289 $w=4e-07 $l=1.65e-07 $layer=POLY_cond $X=0.42 $Y=1.845
+ $X2=0.42 $Y2=2.01
r37 25 26 96.8533 $w=1.7e-07 $l=2.55e-07 $layer=licon1_POLY $count=1 $X=0.385
+ $Y=1.845 $X2=0.385 $Y2=1.845
r38 21 23 45.6753 $w=4e-07 $l=1.65e-07 $layer=POLY_cond $X=0.42 $Y=1.165
+ $X2=0.42 $Y2=1
r39 21 22 96.8533 $w=1.7e-07 $l=2.55e-07 $layer=licon1_POLY $count=1 $X=0.385
+ $Y=1.165 $X2=0.385 $Y2=1.165
r40 16 26 5.61447 $w=3.88e-07 $l=1.9e-07 $layer=LI1_cond $X=0.32 $Y=2.035
+ $X2=0.32 $Y2=1.845
r41 15 26 5.31897 $w=3.88e-07 $l=1.8e-07 $layer=LI1_cond $X=0.32 $Y=1.665
+ $X2=0.32 $Y2=1.845
r42 14 15 10.9334 $w=3.88e-07 $l=3.7e-07 $layer=LI1_cond $X=0.32 $Y=1.295
+ $X2=0.32 $Y2=1.665
r43 14 22 3.84148 $w=3.88e-07 $l=1.3e-07 $layer=LI1_cond $X=0.32 $Y=1.295
+ $X2=0.32 $Y2=1.165
r44 11 23 205.106 $w=1.5e-07 $l=4e-07 $layer=POLY_cond $X=0.545 $Y=0.6 $X2=0.545
+ $Y2=1
r45 7 13 155.484 $w=1.8e-07 $l=4e-07 $layer=POLY_cond $X=0.5 $Y=2.75 $X2=0.5
+ $Y2=2.35
r46 4 13 34.6974 $w=2.1e-07 $l=1.05e-07 $layer=POLY_cond $X=0.515 $Y=2.245
+ $X2=0.515 $Y2=2.35
r47 4 27 74.2101 $w=2.1e-07 $l=2.35e-07 $layer=POLY_cond $X=0.515 $Y=2.245
+ $X2=0.515 $Y2=2.01
r48 2 25 4.86635 $w=4e-07 $l=3.5e-08 $layer=POLY_cond $X=0.42 $Y=1.81 $X2=0.42
+ $Y2=1.845
r49 1 21 4.86635 $w=4e-07 $l=3.5e-08 $layer=POLY_cond $X=0.42 $Y=1.2 $X2=0.42
+ $Y2=1.165
r50 1 2 84.8135 $w=4e-07 $l=6.1e-07 $layer=POLY_cond $X=0.42 $Y=1.2 $X2=0.42
+ $Y2=1.81
.ends

.subckt PM_SKY130_FD_SC_MS__DFRTP_4%CLK 3 6 7 10 12 13
c47 7 0 1.60579e-19 $X=2.16 $Y=1.665
r48 10 13 59.925 $w=3.3e-07 $l=2.75e-07 $layer=POLY_cond $X=1.93 $Y=1.61
+ $X2=1.93 $Y2=1.885
r49 10 12 52.3316 $w=3.3e-07 $l=2e-07 $layer=POLY_cond $X=1.93 $Y=1.61 $X2=1.93
+ $Y2=1.41
r50 10 11 145.28 $w=1.7e-07 $l=1.7e-07 $layer=licon1_POLY $count=1 $X=1.93
+ $Y=1.61 $X2=1.93 $Y2=1.61
r51 7 11 6.00857 $w=4.67e-07 $l=2.3e-07 $layer=LI1_cond $X=2.16 $Y=1.545
+ $X2=1.93 $Y2=1.545
r52 6 12 142.993 $w=1.5e-07 $l=4.45e-07 $layer=POLY_cond $X=1.95 $Y=0.965
+ $X2=1.95 $Y2=1.41
r53 3 13 174.056 $w=1.8e-07 $l=6.5e-07 $layer=POLY_cond $X=1.945 $Y=2.535
+ $X2=1.945 $Y2=1.885
.ends

.subckt PM_SKY130_FD_SC_MS__DFRTP_4%A_497_395# 1 2 7 9 11 13 15 17 19 20 21 24
+ 27 32 33 35 37 41 45 46 52 55 59 65 68 78
c198 52 0 1.60579e-19 $X=3.355 $Y=1.725
c199 46 0 1.63369e-19 $X=2.78 $Y=0.415
c200 41 0 9.26151e-20 $X=7.905 $Y=2.14
c201 33 0 1.29851e-19 $X=4.305 $Y=0.415
c202 15 0 1.85309e-19 $X=3.985 $Y=0.9
c203 13 0 3.29442e-19 $X=3.985 $Y=1.385
c204 7 0 1.00854e-19 $X=3.42 $Y=1.89
r205 67 68 9.95292 $w=3.28e-07 $l=2.85e-07 $layer=LI1_cond $X=7.905 $Y=1.18
+ $X2=8.19 $Y2=1.18
r206 65 74 15.7375 $w=3.3e-07 $l=9e-08 $layer=POLY_cond $X=7.71 $Y=1.18 $X2=7.71
+ $Y2=1.27
r207 64 67 6.80989 $w=3.28e-07 $l=1.95e-07 $layer=LI1_cond $X=7.71 $Y=1.18
+ $X2=7.905 $Y2=1.18
r208 64 65 145.28 $w=1.7e-07 $l=1.7e-07 $layer=licon1_POLY $count=1 $X=7.71
+ $Y=1.18 $X2=7.71 $Y2=1.18
r209 59 61 18.5936 $w=1.68e-07 $l=2.85e-07 $layer=LI1_cond $X=5.48 $Y=0.34
+ $X2=5.48 $Y2=0.625
r210 55 57 13.7005 $w=1.68e-07 $l=2.1e-07 $layer=LI1_cond $X=4.39 $Y=0.415
+ $X2=4.39 $Y2=0.625
r211 53 70 8.81707 $w=3.28e-07 $l=6e-08 $layer=POLY_cond $X=3.355 $Y=1.725
+ $X2=3.355 $Y2=1.665
r212 52 53 145.28 $w=1.7e-07 $l=1.7e-07 $layer=licon1_POLY $count=1 $X=3.355
+ $Y=1.725 $X2=3.355 $Y2=1.725
r213 49 50 7.30169 $w=4.68e-07 $l=8.5e-08 $layer=LI1_cond $X=2.78 $Y=0.72
+ $X2=2.78 $Y2=0.805
r214 46 49 7.76179 $w=4.68e-07 $l=3.05e-07 $layer=LI1_cond $X=2.78 $Y=0.415
+ $X2=2.78 $Y2=0.72
r215 45 68 4.62375 $w=1.7e-07 $l=1.65e-07 $layer=LI1_cond $X=8.19 $Y=1.015
+ $X2=8.19 $Y2=1.18
r216 44 45 38.492 $w=1.68e-07 $l=5.9e-07 $layer=LI1_cond $X=8.19 $Y=0.425
+ $X2=8.19 $Y2=1.015
r217 42 78 27.1035 $w=3.3e-07 $l=1.55e-07 $layer=POLY_cond $X=7.905 $Y=2.14
+ $X2=8.06 $Y2=2.14
r218 41 42 145.28 $w=1.7e-07 $l=1.7e-07 $layer=licon1_POLY $count=1 $X=7.905
+ $Y=2.14 $X2=7.905 $Y2=2.14
r219 39 67 0.716491 $w=3.3e-07 $l=1.65e-07 $layer=LI1_cond $X=7.905 $Y=1.345
+ $X2=7.905 $Y2=1.18
r220 39 41 27.7634 $w=3.28e-07 $l=7.95e-07 $layer=LI1_cond $X=7.905 $Y=1.345
+ $X2=7.905 $Y2=2.14
r221 38 59 0.716491 $w=1.7e-07 $l=8.5e-08 $layer=LI1_cond $X=5.565 $Y=0.34
+ $X2=5.48 $Y2=0.34
r222 37 44 6.81649 $w=1.7e-07 $l=1.20208e-07 $layer=LI1_cond $X=8.105 $Y=0.34
+ $X2=8.19 $Y2=0.425
r223 37 38 165.711 $w=1.68e-07 $l=2.54e-06 $layer=LI1_cond $X=8.105 $Y=0.34
+ $X2=5.565 $Y2=0.34
r224 36 57 0.716491 $w=1.7e-07 $l=8.5e-08 $layer=LI1_cond $X=4.475 $Y=0.625
+ $X2=4.39 $Y2=0.625
r225 35 61 0.716491 $w=1.7e-07 $l=8.5e-08 $layer=LI1_cond $X=5.395 $Y=0.625
+ $X2=5.48 $Y2=0.625
r226 35 36 60.0214 $w=1.68e-07 $l=9.2e-07 $layer=LI1_cond $X=5.395 $Y=0.625
+ $X2=4.475 $Y2=0.625
r227 34 46 6.76998 $w=1.7e-07 $l=2.35e-07 $layer=LI1_cond $X=3.015 $Y=0.415
+ $X2=2.78 $Y2=0.415
r228 33 55 0.716491 $w=1.7e-07 $l=8.5e-08 $layer=LI1_cond $X=4.305 $Y=0.415
+ $X2=4.39 $Y2=0.415
r229 33 34 84.1604 $w=1.68e-07 $l=1.29e-06 $layer=LI1_cond $X=4.305 $Y=0.415
+ $X2=3.015 $Y2=0.415
r230 32 52 9.25877 $w=4.22e-07 $l=2.91033e-07 $layer=LI1_cond $X=2.93 $Y=1.56
+ $X2=3.15 $Y2=1.725
r231 32 50 49.2567 $w=1.68e-07 $l=7.55e-07 $layer=LI1_cond $X=2.93 $Y=1.56
+ $X2=2.93 $Y2=0.805
r232 27 52 10.3209 $w=4.22e-07 $l=4.86142e-07 $layer=LI1_cond $X=2.845 $Y=2.082
+ $X2=3.15 $Y2=1.725
r233 27 29 9.42908 $w=2.73e-07 $l=2.25e-07 $layer=LI1_cond $X=2.845 $Y=2.082
+ $X2=2.62 $Y2=2.082
r234 22 78 16.9318 $w=1.8e-07 $l=1.65e-07 $layer=POLY_cond $X=8.06 $Y=2.305
+ $X2=8.06 $Y2=2.14
r235 22 24 143.823 $w=1.8e-07 $l=3.7e-07 $layer=POLY_cond $X=8.06 $Y=2.305
+ $X2=8.06 $Y2=2.675
r236 20 74 21.2229 $w=1.5e-07 $l=1.65e-07 $layer=POLY_cond $X=7.545 $Y=1.27
+ $X2=7.71 $Y2=1.27
r237 20 21 184.596 $w=1.5e-07 $l=3.6e-07 $layer=POLY_cond $X=7.545 $Y=1.27
+ $X2=7.185 $Y2=1.27
r238 17 21 26.9307 $w=1.5e-07 $l=1.06066e-07 $layer=POLY_cond $X=7.11 $Y=1.195
+ $X2=7.185 $Y2=1.27
r239 17 19 146.207 $w=1.5e-07 $l=4.55e-07 $layer=POLY_cond $X=7.11 $Y=1.195
+ $X2=7.11 $Y2=0.74
r240 13 26 71.6325 $w=1.96e-07 $l=3.06268e-07 $layer=POLY_cond $X=3.985 $Y=1.385
+ $X2=3.93 $Y2=1.665
r241 13 15 248.691 $w=1.5e-07 $l=4.85e-07 $layer=POLY_cond $X=3.985 $Y=1.385
+ $X2=3.985 $Y2=0.9
r242 12 70 21.0783 $w=1.5e-07 $l=1.65e-07 $layer=POLY_cond $X=3.52 $Y=1.665
+ $X2=3.355 $Y2=1.665
r243 11 26 9.11062 $w=1.5e-07 $l=1.3e-07 $layer=POLY_cond $X=3.8 $Y=1.665
+ $X2=3.93 $Y2=1.665
r244 11 12 143.574 $w=1.5e-07 $l=2.8e-07 $layer=POLY_cond $X=3.8 $Y=1.665
+ $X2=3.52 $Y2=1.665
r245 7 53 33.9886 $w=3.28e-07 $l=1.94808e-07 $layer=POLY_cond $X=3.42 $Y=1.89
+ $X2=3.355 $Y2=1.725
r246 7 9 246.831 $w=1.8e-07 $l=6.35e-07 $layer=POLY_cond $X=3.42 $Y=1.89
+ $X2=3.42 $Y2=2.525
r247 2 29 600 $w=1.7e-07 $l=2.17256e-07 $layer=licon1_PDIFF $count=1 $X=2.485
+ $Y=1.975 $X2=2.62 $Y2=2.135
r248 1 49 182 $w=1.7e-07 $l=2.18746e-07 $layer=licon1_NDIFF $count=1 $X=2.545
+ $Y=0.595 $X2=2.71 $Y2=0.72
.ends

.subckt PM_SKY130_FD_SC_MS__DFRTP_4%A_834_355# 1 2 9 13 17 18 21 23 24 26 30 35
c90 35 0 1.49998e-19 $X=6.45 $Y=2.125
c91 30 0 1.42689e-20 $X=5.735 $Y=0.885
c92 24 0 5.02509e-20 $X=6.325 $Y=0.885
c93 21 0 3.05298e-19 $X=4.57 $Y=0.965
c94 13 0 1.36289e-19 $X=4.375 $Y=0.9
r95 29 31 11.8737 $w=3.28e-07 $l=3.4e-07 $layer=LI1_cond $X=5.9 $Y=0.885
+ $X2=6.24 $Y2=0.885
r96 29 30 8.46218 $w=3.28e-07 $l=1.65e-07 $layer=LI1_cond $X=5.9 $Y=0.885
+ $X2=5.735 $Y2=0.885
r97 24 31 2.96841 $w=3.28e-07 $l=8.5e-08 $layer=LI1_cond $X=6.325 $Y=0.885
+ $X2=6.24 $Y2=0.885
r98 24 26 17.4613 $w=3.28e-07 $l=5e-07 $layer=LI1_cond $X=6.325 $Y=0.885
+ $X2=6.825 $Y2=0.885
r99 23 35 8.20383 $w=2.93e-07 $l=2.1e-07 $layer=LI1_cond $X=6.24 $Y=2.087
+ $X2=6.45 $Y2=2.087
r100 22 31 4.62375 $w=1.7e-07 $l=1.65e-07 $layer=LI1_cond $X=6.24 $Y=1.05
+ $X2=6.24 $Y2=0.885
r101 22 23 58.0642 $w=1.68e-07 $l=8.9e-07 $layer=LI1_cond $X=6.24 $Y=1.05
+ $X2=6.24 $Y2=1.94
r102 21 30 76.0053 $w=1.68e-07 $l=1.165e-06 $layer=LI1_cond $X=4.57 $Y=0.965
+ $X2=5.735 $Y2=0.965
r103 18 39 39.9775 $w=4e-07 $l=1.65e-07 $layer=POLY_cond $X=4.37 $Y=1.94
+ $X2=4.37 $Y2=2.105
r104 18 38 45.6753 $w=4e-07 $l=1.65e-07 $layer=POLY_cond $X=4.37 $Y=1.94
+ $X2=4.37 $Y2=1.775
r105 17 18 145.28 $w=1.7e-07 $l=1.7e-07 $layer=licon1_POLY $count=1 $X=4.405
+ $Y=1.94 $X2=4.405 $Y2=1.94
r106 15 21 7.24806 $w=1.7e-07 $l=1.70276e-07 $layer=LI1_cond $X=4.437 $Y=1.05
+ $X2=4.57 $Y2=0.965
r107 15 17 38.7047 $w=2.63e-07 $l=8.9e-07 $layer=LI1_cond $X=4.437 $Y=1.05
+ $X2=4.437 $Y2=1.94
r108 13 38 448.67 $w=1.5e-07 $l=8.75e-07 $layer=POLY_cond $X=4.375 $Y=0.9
+ $X2=4.375 $Y2=1.775
r109 9 39 163.258 $w=1.8e-07 $l=4.2e-07 $layer=POLY_cond $X=4.26 $Y=2.525
+ $X2=4.26 $Y2=2.105
r110 2 35 600 $w=1.7e-07 $l=2.22486e-07 $layer=licon1_PDIFF $count=1 $X=6.315
+ $Y=1.96 $X2=6.45 $Y2=2.125
r111 1 29 182 $w=1.7e-07 $l=5.80797e-07 $layer=licon1_NDIFF $count=1 $X=5.76
+ $Y=0.37 $X2=5.9 $Y2=0.885
r112 1 26 91 $w=1.7e-07 $l=1.29719e-06 $layer=licon1_NDIFF $count=2 $X=5.76
+ $Y=0.37 $X2=6.825 $Y2=0.885
.ends

.subckt PM_SKY130_FD_SC_MS__DFRTP_4%RESET_B 4 6 9 11 12 16 19 22 25 29 33 36 37
+ 38 39 40 43 45 46 48 51 55 56 59 63
c230 55 0 1.15254e-19 $X=1.155 $Y=1.295
c231 51 0 1.66354e-20 $X=5.25 $Y=1.835
c232 43 0 1.36553e-19 $X=5.52 $Y=2.035
c233 40 0 1.63054e-19 $X=5.665 $Y=2.035
c234 36 0 1.42689e-20 $X=4.87 $Y=1.835
c235 19 0 1.24602e-19 $X=4.87 $Y=2.525
c236 11 0 1.19989e-19 $X=4.69 $Y=0.18
r237 63 66 40.6903 $w=3.3e-07 $l=1.65e-07 $layer=POLY_cond $X=8.975 $Y=2.11
+ $X2=8.975 $Y2=2.275
r238 63 65 46.2115 $w=3.3e-07 $l=1.65e-07 $layer=POLY_cond $X=8.975 $Y=2.11
+ $X2=8.975 $Y2=1.945
r239 59 61 41.3282 $w=4.6e-07 $l=1.65e-07 $layer=POLY_cond $X=1.09 $Y=1.975
+ $X2=1.09 $Y2=2.14
r240 59 60 96.8533 $w=1.7e-07 $l=2.55e-07 $layer=licon1_POLY $count=1 $X=1.155
+ $Y=1.975 $X2=1.155 $Y2=1.975
r241 56 60 30.1408 $w=2.58e-07 $l=6.8e-07 $layer=LI1_cond $X=1.155 $Y=1.295
+ $X2=1.155 $Y2=1.975
r242 55 57 47.2161 $w=4.6e-07 $l=1.65e-07 $layer=POLY_cond $X=1.09 $Y=1.295
+ $X2=1.09 $Y2=1.13
r243 55 56 96.8533 $w=1.7e-07 $l=2.55e-07 $layer=licon1_POLY $count=1 $X=1.155
+ $Y=1.295 $X2=1.155 $Y2=1.295
r244 51 52 145.28 $w=1.7e-07 $l=1.7e-07 $layer=licon1_POLY $count=1 $X=5.25
+ $Y=1.835 $X2=5.25 $Y2=1.835
r245 48 60 9.3 $w=1.7e-07 $l=1.7e-07 $layer=mcon $count=1 $X=1.2 $Y=2.035
+ $X2=1.2 $Y2=2.035
r246 46 63 145.28 $w=1.7e-07 $l=1.7e-07 $layer=licon1_POLY $count=1 $X=8.975
+ $Y=2.11 $X2=8.975 $Y2=2.11
r247 45 46 9.3 $w=1.7e-07 $l=1.7e-07 $layer=mcon $count=1 $X=8.88 $Y=2.035
+ $X2=8.88 $Y2=2.035
r248 43 52 7.17647 $w=4.48e-07 $l=2.7e-07 $layer=LI1_cond $X=5.52 $Y=1.895
+ $X2=5.25 $Y2=1.895
r249 42 43 9.3 $w=1.7e-07 $l=1.7e-07 $layer=mcon $count=1 $X=5.52 $Y=2.035
+ $X2=5.52 $Y2=2.035
r250 40 42 0.115467 $w=2.3e-07 $l=1.45e-07 $layer=MET1_cond $X=5.665 $Y=2.035
+ $X2=5.52 $Y2=2.035
r251 39 45 0.115467 $w=2.3e-07 $l=1.45e-07 $layer=MET1_cond $X=8.735 $Y=2.035
+ $X2=8.88 $Y2=2.035
r252 39 40 3.7995 $w=1.4e-07 $l=3.07e-06 $layer=MET1_cond $X=8.735 $Y=2.035
+ $X2=5.665 $Y2=2.035
r253 38 48 0.115467 $w=2.3e-07 $l=1.45e-07 $layer=MET1_cond $X=1.345 $Y=2.035
+ $X2=1.2 $Y2=2.035
r254 37 42 0.115467 $w=2.3e-07 $l=1.45e-07 $layer=MET1_cond $X=5.375 $Y=2.035
+ $X2=5.52 $Y2=2.035
r255 37 38 4.98761 $w=1.4e-07 $l=4.03e-06 $layer=MET1_cond $X=5.375 $Y=2.035
+ $X2=1.345 $Y2=2.035
r256 35 51 50.7098 $w=3.3e-07 $l=2.9e-07 $layer=POLY_cond $X=4.96 $Y=1.835
+ $X2=5.25 $Y2=1.835
r257 35 36 3.90195 $w=3.3e-07 $l=9e-08 $layer=POLY_cond $X=4.96 $Y=1.835
+ $X2=4.87 $Y2=1.835
r258 31 33 61.5319 $w=1.5e-07 $l=1.2e-07 $layer=POLY_cond $X=4.765 $Y=1.26
+ $X2=4.885 $Y2=1.26
r259 29 65 681.979 $w=1.5e-07 $l=1.33e-06 $layer=POLY_cond $X=9.06 $Y=0.615
+ $X2=9.06 $Y2=1.945
r260 25 66 155.484 $w=1.8e-07 $l=4e-07 $layer=POLY_cond $X=9.02 $Y=2.675
+ $X2=9.02 $Y2=2.275
r261 22 36 34.7346 $w=1.65e-07 $l=1.72337e-07 $layer=POLY_cond $X=4.885 $Y=1.67
+ $X2=4.87 $Y2=1.835
r262 21 33 2.83073 $w=1.5e-07 $l=7.5e-08 $layer=POLY_cond $X=4.885 $Y=1.335
+ $X2=4.885 $Y2=1.26
r263 21 22 171.777 $w=1.5e-07 $l=3.35e-07 $layer=POLY_cond $X=4.885 $Y=1.335
+ $X2=4.885 $Y2=1.67
r264 17 36 34.7346 $w=1.65e-07 $l=1.65e-07 $layer=POLY_cond $X=4.87 $Y=2
+ $X2=4.87 $Y2=1.835
r265 17 19 204.073 $w=1.8e-07 $l=5.25e-07 $layer=POLY_cond $X=4.87 $Y=2 $X2=4.87
+ $Y2=2.525
r266 14 31 2.83073 $w=1.5e-07 $l=7.5e-08 $layer=POLY_cond $X=4.765 $Y=1.185
+ $X2=4.765 $Y2=1.26
r267 14 16 146.138 $w=1.5e-07 $l=2.85e-07 $layer=POLY_cond $X=4.765 $Y=1.185
+ $X2=4.765 $Y2=0.9
r268 13 16 330.734 $w=1.5e-07 $l=6.45e-07 $layer=POLY_cond $X=4.765 $Y=0.255
+ $X2=4.765 $Y2=0.9
r269 11 13 26.9307 $w=1.5e-07 $l=1.06066e-07 $layer=POLY_cond $X=4.69 $Y=0.18
+ $X2=4.765 $Y2=0.255
r270 11 12 1886.98 $w=1.5e-07 $l=3.68e-06 $layer=POLY_cond $X=4.69 $Y=0.18
+ $X2=1.01 $Y2=0.18
r271 9 61 237.113 $w=1.8e-07 $l=6.1e-07 $layer=POLY_cond $X=0.95 $Y=2.75
+ $X2=0.95 $Y2=2.14
r272 6 59 7.8587 $w=4.6e-07 $l=6.5e-08 $layer=POLY_cond $X=1.09 $Y=1.91 $X2=1.09
+ $Y2=1.975
r273 5 55 7.8587 $w=4.6e-07 $l=6.5e-08 $layer=POLY_cond $X=1.09 $Y=1.36 $X2=1.09
+ $Y2=1.295
r274 5 6 66.4967 $w=4.6e-07 $l=5.5e-07 $layer=POLY_cond $X=1.09 $Y=1.36 $X2=1.09
+ $Y2=1.91
r275 4 57 271.766 $w=1.5e-07 $l=5.3e-07 $layer=POLY_cond $X=0.935 $Y=0.6
+ $X2=0.935 $Y2=1.13
r276 1 12 26.9307 $w=1.5e-07 $l=1.06066e-07 $layer=POLY_cond $X=0.935 $Y=0.255
+ $X2=1.01 $Y2=0.18
r277 1 4 176.904 $w=1.5e-07 $l=3.45e-07 $layer=POLY_cond $X=0.935 $Y=0.255
+ $X2=0.935 $Y2=0.6
.ends

.subckt PM_SKY130_FD_SC_MS__DFRTP_4%A_303_395# 1 2 7 9 10 12 14 15 16 17 18 19
+ 21 24 26 29 30 32 34 38 40 43 47 50 51 54 55 57 58 64 65 73
c226 65 0 1.73349e-19 $X=5.56 $Y=2.375
c227 64 0 2.80152e-19 $X=5.56 $Y=2.375
c228 55 0 1.15254e-19 $X=1.665 $Y=1.055
c229 54 0 1.35587e-19 $X=6.87 $Y=2.405
c230 50 0 1.00854e-19 $X=2.56 $Y=1.435
c231 43 0 1.63369e-19 $X=1.69 $Y=0.715
c232 24 0 1.93874e-19 $X=3.87 $Y=2.525
c233 17 0 9.3565e-20 $X=3.41 $Y=1.26
r234 71 84 37.5066 $w=3.02e-07 $l=2.35e-07 $layer=POLY_cond $X=6.66 $Y=1.425
+ $X2=6.66 $Y2=1.66
r235 70 73 7.33373 $w=3.28e-07 $l=2.1e-07 $layer=LI1_cond $X=6.66 $Y=1.425
+ $X2=6.87 $Y2=1.425
r236 70 71 145.28 $w=1.7e-07 $l=1.7e-07 $layer=licon1_POLY $count=1 $X=6.66
+ $Y=1.425 $X2=6.66 $Y2=1.425
r237 65 79 30.6007 $w=3.3e-07 $l=1.75e-07 $layer=POLY_cond $X=5.56 $Y=2.375
+ $X2=5.385 $Y2=2.375
r238 64 67 4.01609 $w=3.28e-07 $l=1.15e-07 $layer=LI1_cond $X=5.56 $Y=2.375
+ $X2=5.56 $Y2=2.49
r239 64 65 145.28 $w=1.7e-07 $l=1.7e-07 $layer=licon1_POLY $count=1 $X=5.56
+ $Y=2.375 $X2=5.56 $Y2=2.375
r240 62 78 33.258 $w=5e-07 $l=3.45e-07 $layer=POLY_cond $X=2.56 $Y=1.535
+ $X2=2.905 $Y2=1.535
r241 61 62 145.28 $w=1.7e-07 $l=1.7e-07 $layer=licon1_POLY $count=1 $X=2.56
+ $Y=1.61 $X2=2.56 $Y2=1.61
r242 57 58 9.31166 $w=3.48e-07 $l=1.9e-07 $layer=LI1_cond $X=1.63 $Y=2.135
+ $X2=1.63 $Y2=1.945
r243 53 73 4.62375 $w=1.7e-07 $l=1.65e-07 $layer=LI1_cond $X=6.87 $Y=1.59
+ $X2=6.87 $Y2=1.425
r244 53 54 53.1711 $w=1.68e-07 $l=8.15e-07 $layer=LI1_cond $X=6.87 $Y=1.59
+ $X2=6.87 $Y2=2.405
r245 52 67 4.62375 $w=1.7e-07 $l=1.65e-07 $layer=LI1_cond $X=5.725 $Y=2.49
+ $X2=5.56 $Y2=2.49
r246 51 54 6.81649 $w=1.7e-07 $l=1.20208e-07 $layer=LI1_cond $X=6.785 $Y=2.49
+ $X2=6.87 $Y2=2.405
r247 51 52 69.1551 $w=1.68e-07 $l=1.06e-06 $layer=LI1_cond $X=6.785 $Y=2.49
+ $X2=5.725 $Y2=2.49
r248 50 61 9.28261 $w=2.3e-07 $l=1.75e-07 $layer=LI1_cond $X=2.56 $Y=1.435
+ $X2=2.56 $Y2=1.61
r249 49 50 14.7813 $w=2.28e-07 $l=2.95e-07 $layer=LI1_cond $X=2.56 $Y=1.14
+ $X2=2.56 $Y2=1.435
r250 48 55 3.3845 $w=1.7e-07 $l=2.1e-07 $layer=LI1_cond $X=1.875 $Y=1.055
+ $X2=1.665 $Y2=1.055
r251 47 49 9.71848 $w=1.44e-07 $l=1.51658e-07 $layer=LI1_cond $X=2.445 $Y=1.055
+ $X2=2.56 $Y2=1.14
r252 47 48 37.1872 $w=1.68e-07 $l=5.7e-07 $layer=LI1_cond $X=2.445 $Y=1.055
+ $X2=1.875 $Y2=1.055
r253 45 55 3.19717 $w=2.95e-07 $l=1.62019e-07 $layer=LI1_cond $X=1.54 $Y=1.14
+ $X2=1.665 $Y2=1.055
r254 45 58 52.5187 $w=1.68e-07 $l=8.05e-07 $layer=LI1_cond $X=1.54 $Y=1.14
+ $X2=1.54 $Y2=1.945
r255 41 55 3.19717 $w=2.95e-07 $l=8.5e-08 $layer=LI1_cond $X=1.665 $Y=0.97
+ $X2=1.665 $Y2=1.055
r256 41 43 6.99698 $w=4.18e-07 $l=2.55e-07 $layer=LI1_cond $X=1.665 $Y=0.97
+ $X2=1.665 $Y2=0.715
r257 36 38 497.383 $w=1.5e-07 $l=9.7e-07 $layer=POLY_cond $X=8.16 $Y=1.585
+ $X2=8.16 $Y2=0.615
r258 35 84 19.1248 $w=1.5e-07 $l=1.65e-07 $layer=POLY_cond $X=6.825 $Y=1.66
+ $X2=6.66 $Y2=1.66
r259 34 36 26.9307 $w=1.5e-07 $l=1.06066e-07 $layer=POLY_cond $X=8.085 $Y=1.66
+ $X2=8.16 $Y2=1.585
r260 34 35 646.085 $w=1.5e-07 $l=1.26e-06 $layer=POLY_cond $X=8.085 $Y=1.66
+ $X2=6.825 $Y2=1.66
r261 30 84 19.7735 $w=3.02e-07 $l=8.21584e-08 $layer=POLY_cond $X=6.675 $Y=1.735
+ $X2=6.66 $Y2=1.66
r262 30 32 281.815 $w=1.8e-07 $l=7.25e-07 $layer=POLY_cond $X=6.675 $Y=1.735
+ $X2=6.675 $Y2=2.46
r263 28 79 21.2229 $w=1.5e-07 $l=1.65e-07 $layer=POLY_cond $X=5.385 $Y=2.54
+ $X2=5.385 $Y2=2.375
r264 28 29 274.33 $w=1.5e-07 $l=5.35e-07 $layer=POLY_cond $X=5.385 $Y=2.54
+ $X2=5.385 $Y2=3.075
r265 27 40 23.6879 $w=1.5e-07 $l=9e-08 $layer=POLY_cond $X=3.96 $Y=3.15 $X2=3.87
+ $Y2=3.15
r266 26 29 26.9307 $w=1.5e-07 $l=1.06066e-07 $layer=POLY_cond $X=5.31 $Y=3.15
+ $X2=5.385 $Y2=3.075
r267 26 27 692.234 $w=1.5e-07 $l=1.35e-06 $layer=POLY_cond $X=5.31 $Y=3.15
+ $X2=3.96 $Y2=3.15
r268 22 40 2.7459 $w=1.8e-07 $l=7.5e-08 $layer=POLY_cond $X=3.87 $Y=3.075
+ $X2=3.87 $Y2=3.15
r269 22 24 213.79 $w=1.8e-07 $l=5.5e-07 $layer=POLY_cond $X=3.87 $Y=3.075
+ $X2=3.87 $Y2=2.525
r270 19 21 91.58 $w=1.5e-07 $l=2.85e-07 $layer=POLY_cond $X=3.485 $Y=1.185
+ $X2=3.485 $Y2=0.9
r271 18 78 37.1056 $w=5e-07 $l=3.2749e-07 $layer=POLY_cond $X=3.02 $Y=1.26
+ $X2=2.905 $Y2=1.535
r272 17 19 26.9307 $w=1.5e-07 $l=1.06066e-07 $layer=POLY_cond $X=3.41 $Y=1.26
+ $X2=3.485 $Y2=1.185
r273 17 18 199.979 $w=1.5e-07 $l=3.9e-07 $layer=POLY_cond $X=3.41 $Y=1.26
+ $X2=3.02 $Y2=1.26
r274 15 40 23.6879 $w=1.5e-07 $l=9e-08 $layer=POLY_cond $X=3.78 $Y=3.15 $X2=3.87
+ $Y2=3.15
r275 15 16 410.213 $w=1.5e-07 $l=8e-07 $layer=POLY_cond $X=3.78 $Y=3.15 $X2=2.98
+ $Y2=3.15
r276 14 16 26.9307 $w=1.5e-07 $l=1.06066e-07 $layer=POLY_cond $X=2.905 $Y=3.075
+ $X2=2.98 $Y2=3.15
r277 13 78 31.4081 $w=1.5e-07 $l=3.5e-07 $layer=POLY_cond $X=2.905 $Y=1.885
+ $X2=2.905 $Y2=1.535
r278 13 14 610.191 $w=1.5e-07 $l=1.19e-06 $layer=POLY_cond $X=2.905 $Y=1.885
+ $X2=2.905 $Y2=3.075
r279 10 62 8.676 $w=5e-07 $l=9e-08 $layer=POLY_cond $X=2.47 $Y=1.535 $X2=2.56
+ $Y2=1.535
r280 10 75 7.23 $w=5e-07 $l=7.5e-08 $layer=POLY_cond $X=2.47 $Y=1.535 $X2=2.395
+ $Y2=1.535
r281 10 12 142.993 $w=1.5e-07 $l=4.45e-07 $layer=POLY_cond $X=2.47 $Y=1.41
+ $X2=2.47 $Y2=0.965
r282 7 75 26.863 $w=1.8e-07 $l=3.5e-07 $layer=POLY_cond $X=2.395 $Y=1.885
+ $X2=2.395 $Y2=1.535
r283 7 9 174.056 $w=1.8e-07 $l=6.5e-07 $layer=POLY_cond $X=2.395 $Y=1.885
+ $X2=2.395 $Y2=2.535
r284 2 57 600 $w=1.7e-07 $l=2.13542e-07 $layer=licon1_PDIFF $count=1 $X=1.515
+ $Y=1.975 $X2=1.64 $Y2=2.135
r285 1 43 91 $w=1.7e-07 $l=1.97864e-07 $layer=licon1_NDIFF $count=2 $X=1.545
+ $Y=0.59 $X2=1.69 $Y2=0.715
.ends

.subckt PM_SKY130_FD_SC_MS__DFRTP_4%A_702_463# 1 2 3 10 12 15 17 19 20 21 27 28
+ 31 32 34 38 41 42 43
c138 31 0 1.38915e-19 $X=4.83 $Y=2.295
c139 27 0 9.3565e-20 $X=4.05 $Y=2.4
c140 21 0 1.30745e-19 $X=6.225 $Y=1.73
c141 19 0 2.99607e-19 $X=5.76 $Y=1.385
c142 15 0 5.50928e-20 $X=6.225 $Y=1.82
r143 43 45 8.354 $w=3.87e-07 $l=2.65e-07 $layer=LI1_cond $X=4.83 $Y=2.525
+ $X2=5.095 $Y2=2.525
r144 34 35 145.28 $w=1.7e-07 $l=1.7e-07 $layer=licon1_POLY $count=1 $X=5.82
+ $Y=1.385 $X2=5.82 $Y2=1.385
r145 32 34 37.2486 $w=2.78e-07 $l=9.05e-07 $layer=LI1_cond $X=4.915 $Y=1.36
+ $X2=5.82 $Y2=1.36
r146 31 43 5.57805 $w=1.7e-07 $l=2.3e-07 $layer=LI1_cond $X=4.83 $Y=2.295
+ $X2=4.83 $Y2=2.525
r147 30 32 7.36005 $w=2.8e-07 $l=1.77482e-07 $layer=LI1_cond $X=4.83 $Y=1.5
+ $X2=4.915 $Y2=1.36
r148 30 31 51.8663 $w=1.68e-07 $l=7.95e-07 $layer=LI1_cond $X=4.83 $Y=1.5
+ $X2=4.83 $Y2=2.295
r149 28 43 6.57826 $w=3.87e-07 $l=1.03078e-07 $layer=LI1_cond $X=4.745 $Y=2.485
+ $X2=4.83 $Y2=2.525
r150 28 42 33.5989 $w=1.68e-07 $l=5.15e-07 $layer=LI1_cond $X=4.745 $Y=2.485
+ $X2=4.23 $Y2=2.485
r151 27 42 9.01544 $w=3.73e-07 $l=1.8e-07 $layer=LI1_cond $X=4.05 $Y=2.587
+ $X2=4.23 $Y2=2.587
r152 27 41 2.80732 $w=3.73e-07 $l=8.5e-08 $layer=LI1_cond $X=4.05 $Y=2.587
+ $X2=3.965 $Y2=2.587
r153 26 38 11.3867 $w=3e-07 $l=3.62767e-07 $layer=LI1_cond $X=4.05 $Y=1.05
+ $X2=3.77 $Y2=0.86
r154 26 27 88.0749 $w=1.68e-07 $l=1.35e-06 $layer=LI1_cond $X=4.05 $Y=1.05
+ $X2=4.05 $Y2=2.4
r155 24 41 11.1752 $w=3.28e-07 $l=3.2e-07 $layer=LI1_cond $X=3.645 $Y=2.61
+ $X2=3.965 $Y2=2.61
r156 20 35 55.0813 $w=3.3e-07 $l=3.15e-07 $layer=POLY_cond $X=6.135 $Y=1.385
+ $X2=5.82 $Y2=1.385
r157 19 35 10.4917 $w=3.3e-07 $l=6e-08 $layer=POLY_cond $X=5.76 $Y=1.385
+ $X2=5.82 $Y2=1.385
r158 15 21 37.1337 $w=1.8e-07 $l=9e-08 $layer=POLY_cond $X=6.225 $Y=1.82
+ $X2=6.225 $Y2=1.73
r159 15 17 248.774 $w=1.8e-07 $l=6.4e-07 $layer=POLY_cond $X=6.225 $Y=1.82
+ $X2=6.225 $Y2=2.46
r160 13 20 32.1775 $w=3.3e-07 $l=1.98997e-07 $layer=POLY_cond $X=6.21 $Y=1.55
+ $X2=6.135 $Y2=1.385
r161 13 21 92.2979 $w=1.5e-07 $l=1.8e-07 $layer=POLY_cond $X=6.21 $Y=1.55
+ $X2=6.21 $Y2=1.73
r162 10 19 17.4878 $w=4.41e-07 $l=1.98997e-07 $layer=POLY_cond $X=5.685 $Y=1.22
+ $X2=5.76 $Y2=1.385
r163 10 12 154.24 $w=1.5e-07 $l=4.8e-07 $layer=POLY_cond $X=5.685 $Y=1.22
+ $X2=5.685 $Y2=0.74
r164 3 45 600 $w=1.7e-07 $l=2.69165e-07 $layer=licon1_PDIFF $count=1 $X=4.96
+ $Y=2.315 $X2=5.095 $Y2=2.525
r165 2 24 600 $w=1.7e-07 $l=3.5616e-07 $layer=licon1_PDIFF $count=1 $X=3.51
+ $Y=2.315 $X2=3.645 $Y2=2.61
r166 1 38 182 $w=1.7e-07 $l=2.82489e-07 $layer=licon1_NDIFF $count=1 $X=3.56
+ $Y=0.69 $X2=3.77 $Y2=0.86
.ends

.subckt PM_SKY130_FD_SC_MS__DFRTP_4%A_1678_395# 1 2 9 15 17 18 19 22 23 24 27 30
+ 31 35 40 42
c122 40 0 1.63846e-19 $X=9.395 $Y=2.675
c123 30 0 1.27304e-19 $X=9.86 $Y=1.875
c124 23 0 1.26767e-19 $X=9.775 $Y=1.96
c125 17 0 9.26151e-20 $X=8.492 $Y=1.975
r126 38 40 3.90026 $w=4.58e-07 $l=1.5e-07 $layer=LI1_cond $X=9.245 $Y=2.675
+ $X2=9.395 $Y2=2.675
r127 35 45 46.2115 $w=3.3e-07 $l=1.65e-07 $layer=POLY_cond $X=8.61 $Y=1.2
+ $X2=8.61 $Y2=1.365
r128 35 44 46.2115 $w=3.3e-07 $l=1.65e-07 $layer=POLY_cond $X=8.61 $Y=1.2
+ $X2=8.61 $Y2=1.035
r129 34 35 145.28 $w=1.7e-07 $l=1.7e-07 $layer=licon1_POLY $count=1 $X=8.61
+ $Y=1.2 $X2=8.61 $Y2=1.2
r130 31 34 2.7938 $w=3.28e-07 $l=8e-08 $layer=LI1_cond $X=8.61 $Y=1.12 $X2=8.61
+ $Y2=1.2
r131 29 42 3.70735 $w=2.5e-07 $l=1.75425e-07 $layer=LI1_cond $X=9.86 $Y=1.205
+ $X2=9.722 $Y2=1.12
r132 29 30 43.7112 $w=1.68e-07 $l=6.7e-07 $layer=LI1_cond $X=9.86 $Y=1.205
+ $X2=9.86 $Y2=1.875
r133 25 42 3.70735 $w=2.5e-07 $l=1.09864e-07 $layer=LI1_cond $X=9.665 $Y=1.035
+ $X2=9.722 $Y2=1.12
r134 25 27 14.6675 $w=3.28e-07 $l=4.2e-07 $layer=LI1_cond $X=9.665 $Y=1.035
+ $X2=9.665 $Y2=0.615
r135 23 30 6.81649 $w=1.7e-07 $l=1.20208e-07 $layer=LI1_cond $X=9.775 $Y=1.96
+ $X2=9.86 $Y2=1.875
r136 23 24 19.246 $w=1.68e-07 $l=2.95e-07 $layer=LI1_cond $X=9.775 $Y=1.96
+ $X2=9.48 $Y2=1.96
r137 22 40 6.6364 $w=1.7e-07 $l=2.3e-07 $layer=LI1_cond $X=9.395 $Y=2.445
+ $X2=9.395 $Y2=2.675
r138 21 24 6.81649 $w=1.7e-07 $l=1.20208e-07 $layer=LI1_cond $X=9.395 $Y=2.045
+ $X2=9.48 $Y2=1.96
r139 21 22 26.0963 $w=1.68e-07 $l=4e-07 $layer=LI1_cond $X=9.395 $Y=2.045
+ $X2=9.395 $Y2=2.445
r140 20 31 4.62375 $w=1.7e-07 $l=1.65e-07 $layer=LI1_cond $X=8.775 $Y=1.12
+ $X2=8.61 $Y2=1.12
r141 19 42 2.76166 $w=1.7e-07 $l=2.22e-07 $layer=LI1_cond $X=9.5 $Y=1.12
+ $X2=9.722 $Y2=1.12
r142 19 20 47.2995 $w=1.68e-07 $l=7.25e-07 $layer=LI1_cond $X=9.5 $Y=1.12
+ $X2=8.775 $Y2=1.12
r143 17 18 60.4563 $w=1.8e-07 $l=1.5e-07 $layer=POLY_cond $X=8.492 $Y=1.975
+ $X2=8.492 $Y2=2.125
r144 17 45 312.787 $w=1.5e-07 $l=6.1e-07 $layer=POLY_cond $X=8.52 $Y=1.975
+ $X2=8.52 $Y2=1.365
r145 15 44 215.362 $w=1.5e-07 $l=4.2e-07 $layer=POLY_cond $X=8.55 $Y=0.615
+ $X2=8.55 $Y2=1.035
r146 9 18 213.79 $w=1.8e-07 $l=5.5e-07 $layer=POLY_cond $X=8.48 $Y=2.675
+ $X2=8.48 $Y2=2.125
r147 2 38 600 $w=1.7e-07 $l=2.69165e-07 $layer=licon1_PDIFF $count=1 $X=9.11
+ $Y=2.465 $X2=9.245 $Y2=2.675
r148 1 27 182 $w=1.7e-07 $l=2.71109e-07 $layer=licon1_NDIFF $count=1 $X=9.525
+ $Y=0.405 $X2=9.665 $Y2=0.615
.ends

.subckt PM_SKY130_FD_SC_MS__DFRTP_4%A_1353_392# 1 2 9 13 15 19 21 25 28 31 32 33
+ 34 35 36 37 40 42 47 48 49 55 56
c163 47 0 9.99956e-20 $X=8.325 $Y=2.475
c164 35 0 1.07146e-19 $X=10.475 $Y=1.335
c165 25 0 2.54071e-19 $X=10.425 $Y=2.465
c166 19 0 1.63846e-19 $X=9.975 $Y=2.465
r167 62 63 24.9528 $w=3.3e-07 $l=7.5e-08 $layer=POLY_cond $X=9.51 $Y=1.63
+ $X2=9.51 $Y2=1.705
r168 56 62 15.7375 $w=3.3e-07 $l=9e-08 $layer=POLY_cond $X=9.51 $Y=1.54 $X2=9.51
+ $Y2=1.63
r169 56 61 46.2115 $w=3.3e-07 $l=1.65e-07 $layer=POLY_cond $X=9.51 $Y=1.54
+ $X2=9.51 $Y2=1.375
r170 55 58 3.54598 $w=2.58e-07 $l=8e-08 $layer=LI1_cond $X=9.475 $Y=1.54
+ $X2=9.475 $Y2=1.62
r171 55 56 145.28 $w=1.7e-07 $l=1.7e-07 $layer=licon1_POLY $count=1 $X=9.51
+ $Y=1.54 $X2=9.51 $Y2=1.54
r172 48 58 3.22376 $w=1.7e-07 $l=1.3e-07 $layer=LI1_cond $X=9.345 $Y=1.62
+ $X2=9.475 $Y2=1.62
r173 48 49 61 $w=1.68e-07 $l=9.35e-07 $layer=LI1_cond $X=9.345 $Y=1.62 $X2=8.41
+ $Y2=1.62
r174 46 49 6.81649 $w=1.7e-07 $l=1.20208e-07 $layer=LI1_cond $X=8.325 $Y=1.705
+ $X2=8.41 $Y2=1.62
r175 46 47 50.2353 $w=1.68e-07 $l=7.7e-07 $layer=LI1_cond $X=8.325 $Y=1.705
+ $X2=8.325 $Y2=2.475
r176 43 51 2.79691 $w=3.3e-07 $l=1.03e-07 $layer=LI1_cond $X=7.33 $Y=2.64
+ $X2=7.227 $Y2=2.64
r177 43 45 17.6359 $w=3.28e-07 $l=5.05e-07 $layer=LI1_cond $X=7.33 $Y=2.64
+ $X2=7.835 $Y2=2.64
r178 42 47 7.76618 $w=3.3e-07 $l=2.03101e-07 $layer=LI1_cond $X=8.24 $Y=2.64
+ $X2=8.325 $Y2=2.475
r179 42 45 14.1436 $w=3.28e-07 $l=4.05e-07 $layer=LI1_cond $X=8.24 $Y=2.64
+ $X2=7.835 $Y2=2.64
r180 38 53 2.89128 $w=2.5e-07 $l=8.5e-08 $layer=LI1_cond $X=7.33 $Y=0.72
+ $X2=7.245 $Y2=0.72
r181 38 40 20.283 $w=2.48e-07 $l=4.4e-07 $layer=LI1_cond $X=7.33 $Y=0.72
+ $X2=7.77 $Y2=0.72
r182 37 51 4.96927 $w=1.7e-07 $l=1.73767e-07 $layer=LI1_cond $X=7.245 $Y=2.475
+ $X2=7.227 $Y2=2.64
r183 36 53 4.25188 $w=1.7e-07 $l=1.25e-07 $layer=LI1_cond $X=7.245 $Y=0.845
+ $X2=7.245 $Y2=0.72
r184 36 37 106.342 $w=1.68e-07 $l=1.63e-06 $layer=LI1_cond $X=7.245 $Y=0.845
+ $X2=7.245 $Y2=2.475
r185 34 35 43.7534 $w=2.2e-07 $l=1.5e-07 $layer=POLY_cond $X=10.475 $Y=1.185
+ $X2=10.475 $Y2=1.335
r186 31 34 142.993 $w=1.5e-07 $l=4.45e-07 $layer=POLY_cond $X=10.51 $Y=0.74
+ $X2=10.51 $Y2=1.185
r187 28 33 18.8402 $w=1.65e-07 $l=8.21584e-08 $layer=POLY_cond $X=10.44 $Y=1.555
+ $X2=10.425 $Y2=1.63
r188 28 35 112.809 $w=1.5e-07 $l=2.2e-07 $layer=POLY_cond $X=10.44 $Y=1.555
+ $X2=10.44 $Y2=1.335
r189 23 33 18.8402 $w=1.65e-07 $l=7.5e-08 $layer=POLY_cond $X=10.425 $Y=1.705
+ $X2=10.425 $Y2=1.63
r190 23 25 295.419 $w=1.8e-07 $l=7.6e-07 $layer=POLY_cond $X=10.425 $Y=1.705
+ $X2=10.425 $Y2=2.465
r191 22 32 23.6879 $w=1.5e-07 $l=9e-08 $layer=POLY_cond $X=10.065 $Y=1.63
+ $X2=9.975 $Y2=1.63
r192 21 33 6.66866 $w=1.5e-07 $l=9e-08 $layer=POLY_cond $X=10.335 $Y=1.63
+ $X2=10.425 $Y2=1.63
r193 21 22 138.447 $w=1.5e-07 $l=2.7e-07 $layer=POLY_cond $X=10.335 $Y=1.63
+ $X2=10.065 $Y2=1.63
r194 17 32 2.7459 $w=1.8e-07 $l=7.5e-08 $layer=POLY_cond $X=9.975 $Y=1.705
+ $X2=9.975 $Y2=1.63
r195 17 19 295.419 $w=1.8e-07 $l=7.6e-07 $layer=POLY_cond $X=9.975 $Y=1.705
+ $X2=9.975 $Y2=2.465
r196 16 62 21.2229 $w=1.5e-07 $l=1.65e-07 $layer=POLY_cond $X=9.675 $Y=1.63
+ $X2=9.51 $Y2=1.63
r197 15 32 23.6879 $w=1.5e-07 $l=9e-08 $layer=POLY_cond $X=9.885 $Y=1.63
+ $X2=9.975 $Y2=1.63
r198 15 16 107.681 $w=1.5e-07 $l=2.1e-07 $layer=POLY_cond $X=9.885 $Y=1.63
+ $X2=9.675 $Y2=1.63
r199 13 63 377.048 $w=1.8e-07 $l=9.7e-07 $layer=POLY_cond $X=9.47 $Y=2.675
+ $X2=9.47 $Y2=1.705
r200 9 61 389.702 $w=1.5e-07 $l=7.6e-07 $layer=POLY_cond $X=9.45 $Y=0.615
+ $X2=9.45 $Y2=1.375
r201 2 51 600 $w=1.7e-07 $l=8.88144e-07 $layer=licon1_PDIFF $count=1 $X=6.765
+ $Y=1.96 $X2=7.245 $Y2=2.64
r202 2 45 600 $w=1.7e-07 $l=1.36839e-06 $layer=licon1_PDIFF $count=1 $X=6.765
+ $Y=1.96 $X2=7.835 $Y2=2.64
r203 1 53 182 $w=1.7e-07 $l=3.73497e-07 $layer=licon1_NDIFF $count=1 $X=7.185
+ $Y=0.37 $X2=7.325 $Y2=0.68
r204 1 40 182 $w=1.7e-07 $l=7.23585e-07 $layer=licon1_NDIFF $count=1 $X=7.185
+ $Y=0.37 $X2=7.77 $Y2=0.68
.ends

.subckt PM_SKY130_FD_SC_MS__DFRTP_4%A_2013_409# 1 2 9 12 15 19 21 22 25 29 33 37
+ 41 45 47 48 51 58 61 63 70
c126 25 0 1.38275e-19 $X=12.025 $Y=0.74
r127 64 65 13.1146 $w=3.3e-07 $l=7.5e-08 $layer=POLY_cond $X=11.425 $Y=1.465
+ $X2=11.5 $Y2=1.465
r128 59 68 66.9444 $w=1.98e-07 $l=2.75e-07 $layer=POLY_cond $X=12.075 $Y=1.48
+ $X2=12.35 $Y2=1.48
r129 59 66 12.1717 $w=1.98e-07 $l=5e-08 $layer=POLY_cond $X=12.075 $Y=1.48
+ $X2=12.025 $Y2=1.48
r130 58 59 96.8533 $w=1.7e-07 $l=2.55e-07 $layer=licon1_POLY $count=1 $X=12.075
+ $Y=1.465 $X2=12.075 $Y2=1.465
r131 56 64 5.24584 $w=3.3e-07 $l=3e-08 $layer=POLY_cond $X=11.395 $Y=1.465
+ $X2=11.425 $Y2=1.465
r132 56 63 46.2115 $w=3.3e-07 $l=1.65e-07 $layer=POLY_cond $X=11.395 $Y=1.465
+ $X2=11.23 $Y2=1.465
r133 55 58 23.7473 $w=3.28e-07 $l=6.8e-07 $layer=LI1_cond $X=11.395 $Y=1.465
+ $X2=12.075 $Y2=1.465
r134 55 56 96.8533 $w=1.7e-07 $l=2.55e-07 $layer=licon1_POLY $count=1 $X=11.395
+ $Y=1.465 $X2=11.395 $Y2=1.465
r135 53 61 6.46576 $w=2.5e-07 $l=1.65e-07 $layer=LI1_cond $X=10.89 $Y=1.465
+ $X2=10.725 $Y2=1.465
r136 53 55 17.6359 $w=3.28e-07 $l=5.05e-07 $layer=LI1_cond $X=10.89 $Y=1.465
+ $X2=11.395 $Y2=1.465
r137 49 61 0.364692 $w=3.3e-07 $l=1.65e-07 $layer=LI1_cond $X=10.725 $Y=1.3
+ $X2=10.725 $Y2=1.465
r138 49 51 27.4142 $w=3.28e-07 $l=7.85e-07 $layer=LI1_cond $X=10.725 $Y=1.3
+ $X2=10.725 $Y2=0.515
r139 47 61 6.46576 $w=2.5e-07 $l=2.0106e-07 $layer=LI1_cond $X=10.56 $Y=1.545
+ $X2=10.725 $Y2=1.465
r140 47 48 12.7219 $w=1.68e-07 $l=1.95e-07 $layer=LI1_cond $X=10.56 $Y=1.545
+ $X2=10.365 $Y2=1.545
r141 43 48 7.14316 $w=1.7e-07 $l=1.62019e-07 $layer=LI1_cond $X=10.24 $Y=1.63
+ $X2=10.365 $Y2=1.545
r142 43 45 25.8147 $w=2.48e-07 $l=5.6e-07 $layer=LI1_cond $X=10.24 $Y=1.63
+ $X2=10.24 $Y2=2.19