* File: sky130_fd_sc_ms__dfxtp_1.pex.spice
* Created: Wed Sep  2 12:04:10 2020
* Program "Calibre xRC"
* Version "v2018.4_34.26"
* Nominal Temperature: 27C
* Circuit Temperature: 27C
* 
.subckt PM_SKY130_FD_SC_MS__DFXTP_1%CLK 3 7 9 13 16
c36 3 0 1.52766e-19 $X=0.505 $Y=2.4
r37 15 16 1.74861 $w=3.3e-07 $l=1e-08 $layer=POLY_cond $X=0.495 $Y=1.465
+ $X2=0.505 $Y2=1.465
r38 12 15 27.1035 $w=3.3e-07 $l=1.55e-07 $layer=POLY_cond $X=0.34 $Y=1.465
+ $X2=0.495 $Y2=1.465
r39 12 13 145.28 $w=1.7e-07 $l=1.7e-07 $layer=licon1_POLY $count=1 $X=0.34
+ $Y=1.465 $X2=0.34 $Y2=1.465
r40 9 13 6.06549 $w=3.78e-07 $l=2e-07 $layer=LI1_cond $X=0.315 $Y=1.665
+ $X2=0.315 $Y2=1.465
r41 5 15 21.2229 $w=1.5e-07 $l=1.65e-07 $layer=POLY_cond $X=0.495 $Y=1.3
+ $X2=0.495 $Y2=1.465
r42 5 7 287.149 $w=1.5e-07 $l=5.6e-07 $layer=POLY_cond $X=0.495 $Y=1.3 $X2=0.495
+ $Y2=0.74
r43 1 16 16.9318 $w=1.8e-07 $l=1.65e-07 $layer=POLY_cond $X=0.505 $Y=1.63
+ $X2=0.505 $Y2=1.465
r44 1 3 299.306 $w=1.8e-07 $l=7.7e-07 $layer=POLY_cond $X=0.505 $Y=1.63
+ $X2=0.505 $Y2=2.4
.ends

.subckt PM_SKY130_FD_SC_MS__DFXTP_1%A_27_74# 1 2 9 13 16 20 24 26 27 31 34 36 38
+ 40 41 42 45 48 49 51 52 53 55 56 57 58 61 64 66 67 70 72 75 76 79 81 83 84 85
+ 88
c278 83 0 6.36416e-20 $X=5.73 $Y=0.345
c279 75 0 1.82292e-19 $X=0.905 $Y=1.045
c280 20 0 1.79812e-19 $X=3.265 $Y=2.725
r281 84 95 46.2115 $w=3.3e-07 $l=1.65e-07 $layer=POLY_cond $X=5.73 $Y=0.345
+ $X2=5.73 $Y2=0.51
r282 83 85 8.74048 $w=2.53e-07 $l=1.65e-07 $layer=LI1_cond $X=5.73 $Y=0.382
+ $X2=5.565 $Y2=0.382
r283 83 84 145.28 $w=1.7e-07 $l=1.7e-07 $layer=licon1_POLY $count=1 $X=5.73
+ $Y=0.345 $X2=5.73 $Y2=0.345
r284 79 89 39.7167 $w=3.85e-07 $l=1.65e-07 $layer=POLY_cond $X=0.997 $Y=1.385
+ $X2=0.997 $Y2=1.55
r285 79 88 45.3519 $w=3.85e-07 $l=1.65e-07 $layer=POLY_cond $X=0.997 $Y=1.385
+ $X2=0.997 $Y2=1.22
r286 78 80 9.2801 $w=4.58e-07 $l=1.65e-07 $layer=LI1_cond $X=0.905 $Y=1.385
+ $X2=0.905 $Y2=1.55
r287 78 79 145.28 $w=1.7e-07 $l=1.7e-07 $layer=licon1_POLY $count=1 $X=0.97
+ $Y=1.385 $X2=0.97 $Y2=1.385
r288 75 78 8.84058 $w=4.58e-07 $l=3.4e-07 $layer=LI1_cond $X=0.905 $Y=1.045
+ $X2=0.905 $Y2=1.385
r289 75 76 7.19996 $w=4.58e-07 $l=8.5e-08 $layer=LI1_cond $X=0.905 $Y=1.045
+ $X2=0.905 $Y2=0.96
r290 72 85 59.0428 $w=1.68e-07 $l=9.05e-07 $layer=LI1_cond $X=4.66 $Y=0.34
+ $X2=5.565 $Y2=0.34
r291 69 72 6.81649 $w=1.7e-07 $l=1.20208e-07 $layer=LI1_cond $X=4.575 $Y=0.425
+ $X2=4.66 $Y2=0.34
r292 69 70 17.2888 $w=1.68e-07 $l=2.65e-07 $layer=LI1_cond $X=4.575 $Y=0.425
+ $X2=4.575 $Y2=0.69
r293 68 81 1.34256 $w=1.7e-07 $l=8.5e-08 $layer=LI1_cond $X=3.76 $Y=0.775
+ $X2=3.675 $Y2=0.775
r294 67 70 6.81649 $w=1.7e-07 $l=1.20208e-07 $layer=LI1_cond $X=4.49 $Y=0.775
+ $X2=4.575 $Y2=0.69
r295 67 68 47.6257 $w=1.68e-07 $l=7.3e-07 $layer=LI1_cond $X=4.49 $Y=0.775
+ $X2=3.76 $Y2=0.775
r296 65 81 5.16603 $w=1.7e-07 $l=8.5e-08 $layer=LI1_cond $X=3.675 $Y=0.86
+ $X2=3.675 $Y2=0.775
r297 65 66 58.0642 $w=1.68e-07 $l=8.9e-07 $layer=LI1_cond $X=3.675 $Y=0.86
+ $X2=3.675 $Y2=1.75
r298 64 81 5.16603 $w=1.7e-07 $l=8.5e-08 $layer=LI1_cond $X=3.675 $Y=0.69
+ $X2=3.675 $Y2=0.775
r299 63 64 15.984 $w=1.68e-07 $l=2.45e-07 $layer=LI1_cond $X=3.675 $Y=0.445
+ $X2=3.675 $Y2=0.69
r300 61 92 40.9837 $w=3.7e-07 $l=1.65e-07 $layer=POLY_cond $X=3.215 $Y=1.915
+ $X2=3.215 $Y2=2.08
r301 61 91 46.7569 $w=3.7e-07 $l=1.65e-07 $layer=POLY_cond $X=3.215 $Y=1.915
+ $X2=3.215 $Y2=1.75
r302 60 61 145.28 $w=1.7e-07 $l=1.7e-07 $layer=licon1_POLY $count=1 $X=3.235
+ $Y=1.915 $X2=3.235 $Y2=1.915
r303 58 66 7.76618 $w=3.3e-07 $l=2.03101e-07 $layer=LI1_cond $X=3.59 $Y=1.915
+ $X2=3.675 $Y2=1.75
r304 58 60 12.3975 $w=3.28e-07 $l=3.55e-07 $layer=LI1_cond $X=3.59 $Y=1.915
+ $X2=3.235 $Y2=1.915
r305 56 63 6.81649 $w=1.7e-07 $l=1.20208e-07 $layer=LI1_cond $X=3.59 $Y=0.36
+ $X2=3.675 $Y2=0.445
r306 56 57 61 $w=1.68e-07 $l=9.35e-07 $layer=LI1_cond $X=3.59 $Y=0.36 $X2=2.655
+ $Y2=0.36
r307 54 57 6.81649 $w=1.7e-07 $l=1.20208e-07 $layer=LI1_cond $X=2.57 $Y=0.445
+ $X2=2.655 $Y2=0.36
r308 54 55 18.5936 $w=1.68e-07 $l=2.85e-07 $layer=LI1_cond $X=2.57 $Y=0.445
+ $X2=2.57 $Y2=0.73
r309 52 55 6.81649 $w=1.7e-07 $l=1.20208e-07 $layer=LI1_cond $X=2.485 $Y=0.815
+ $X2=2.57 $Y2=0.73
r310 52 53 43.7112 $w=1.68e-07 $l=6.7e-07 $layer=LI1_cond $X=2.485 $Y=0.815
+ $X2=1.815 $Y2=0.815
r311 51 53 6.81649 $w=1.7e-07 $l=1.20208e-07 $layer=LI1_cond $X=1.73 $Y=0.73
+ $X2=1.815 $Y2=0.815
r312 50 51 19.8984 $w=1.68e-07 $l=3.05e-07 $layer=LI1_cond $X=1.73 $Y=0.425
+ $X2=1.73 $Y2=0.73
r313 48 50 6.81649 $w=1.7e-07 $l=1.20208e-07 $layer=LI1_cond $X=1.645 $Y=0.34
+ $X2=1.73 $Y2=0.425
r314 48 49 33.2727 $w=1.68e-07 $l=5.1e-07 $layer=LI1_cond $X=1.645 $Y=0.34
+ $X2=1.135 $Y2=0.34
r315 46 49 6.81649 $w=1.7e-07 $l=1.20208e-07 $layer=LI1_cond $X=1.05 $Y=0.425
+ $X2=1.135 $Y2=0.34
r316 46 76 34.9037 $w=1.68e-07 $l=5.35e-07 $layer=LI1_cond $X=1.05 $Y=0.425
+ $X2=1.05 $Y2=0.96
r317 45 80 26.0963 $w=1.68e-07 $l=4e-07 $layer=LI1_cond $X=0.76 $Y=1.95 $X2=0.76
+ $Y2=1.55
r318 43 74 5.12568 $w=1.7e-07 $l=1.65e-07 $layer=LI1_cond $X=0.445 $Y=2.035
+ $X2=0.28 $Y2=2.035
r319 42 45 6.81649 $w=1.7e-07 $l=1.20208e-07 $layer=LI1_cond $X=0.675 $Y=2.035
+ $X2=0.76 $Y2=1.95
r320 42 43 15.0053 $w=1.68e-07 $l=2.3e-07 $layer=LI1_cond $X=0.675 $Y=2.035
+ $X2=0.445 $Y2=2.035
r321 40 75 6.6364 $w=1.7e-07 $l=2.3e-07 $layer=LI1_cond $X=0.675 $Y=1.045
+ $X2=0.905 $Y2=1.045
r322 40 41 20.2246 $w=1.68e-07 $l=3.1e-07 $layer=LI1_cond $X=0.675 $Y=1.045
+ $X2=0.365 $Y2=1.045
r323 36 74 2.6405 $w=3.3e-07 $l=8.5e-08 $layer=LI1_cond $X=0.28 $Y=2.12 $X2=0.28
+ $Y2=2.035
r324 36 38 24.2711 $w=3.28e-07 $l=6.95e-07 $layer=LI1_cond $X=0.28 $Y=2.12
+ $X2=0.28 $Y2=2.815
r325 32 41 7.14316 $w=1.7e-07 $l=1.62019e-07 $layer=LI1_cond $X=0.24 $Y=0.96
+ $X2=0.365 $Y2=1.045
r326 32 34 20.5135 $w=2.48e-07 $l=4.45e-07 $layer=LI1_cond $X=0.24 $Y=0.96
+ $X2=0.24 $Y2=0.515
r327 31 95 164.085 $w=1.5e-07 $l=3.2e-07 $layer=POLY_cond $X=5.765 $Y=0.83
+ $X2=5.765 $Y2=0.51
r328 29 31 440.979 $w=1.5e-07 $l=8.6e-07 $layer=POLY_cond $X=5.765 $Y=1.69
+ $X2=5.765 $Y2=0.83
r329 26 29 26.9307 $w=1.5e-07 $l=1.06066e-07 $layer=POLY_cond $X=5.69 $Y=1.765
+ $X2=5.765 $Y2=1.69
r330 26 27 317.915 $w=1.5e-07 $l=6.2e-07 $layer=POLY_cond $X=5.69 $Y=1.765
+ $X2=5.07 $Y2=1.765
r331 22 27 27.2212 $w=1.5e-07 $l=1.21861e-07 $layer=POLY_cond $X=4.98 $Y=1.84
+ $X2=5.07 $Y2=1.765
r332 22 24 272.097 $w=1.8e-07 $l=7e-07 $layer=POLY_cond $X=4.98 $Y=1.84 $X2=4.98
+ $Y2=2.54
r333 20 92 250.718 $w=1.8e-07 $l=6.45e-07 $layer=POLY_cond $X=3.265 $Y=2.725
+ $X2=3.265 $Y2=2.08
r334 16 91 469.181 $w=1.5e-07 $l=9.15e-07 $layer=POLY_cond $X=3.105 $Y=0.835
+ $X2=3.105 $Y2=1.75
r335 13 88 154.24 $w=1.5e-07 $l=4.8e-07 $layer=POLY_cond $X=1.115 $Y=0.74
+ $X2=1.115 $Y2=1.22
r336 9 89 330.403 $w=1.8e-07 $l=8.5e-07 $layer=POLY_cond $X=0.955 $Y=2.4
+ $X2=0.955 $Y2=1.55
r337 2 74 400 $w=1.7e-07 $l=3.39853e-07 $layer=licon1_PDIFF $count=1 $X=0.135
+ $Y=1.84 $X2=0.28 $Y2=2.115
r338 2 38 400 $w=1.7e-07 $l=1.04499e-06 $layer=licon1_PDIFF $count=1 $X=0.135
+ $Y=1.84 $X2=0.28 $Y2=2.815
r339 1 34 91 $w=1.7e-07 $l=2.05061e-07 $layer=licon1_NDIFF $count=2 $X=0.135
+ $Y=0.37 $X2=0.28 $Y2=0.515
.ends

.subckt PM_SKY130_FD_SC_MS__DFXTP_1%D 3 5 7 8 15 18 19 26
r47 26 27 1.12427 $w=3.78e-07 $l=1e-08 $layer=LI1_cond $X=2.06 $Y=2.035 $X2=2.06
+ $Y2=2.025
r48 18 19 145.28 $w=1.7e-07 $l=1.7e-07 $layer=licon1_POLY $count=1 $X=2.135
+ $Y=1.29 $X2=2.135 $Y2=1.29
r49 12 15 27.9778 $w=3.3e-07 $l=1.6e-07 $layer=POLY_cond $X=2.035 $Y=2.19
+ $X2=2.195 $Y2=2.19
r50 12 13 145.28 $w=1.7e-07 $l=1.7e-07 $layer=licon1_POLY $count=1 $X=2.035
+ $Y=2.19 $X2=2.035 $Y2=2.19
r51 8 13 3.57864 $w=3.78e-07 $l=1.18e-07 $layer=LI1_cond $X=2.06 $Y=2.072
+ $X2=2.06 $Y2=2.19
r52 8 26 1.12212 $w=3.78e-07 $l=3.7e-08 $layer=LI1_cond $X=2.06 $Y=2.072
+ $X2=2.06 $Y2=2.035
r53 8 27 1.56403 $w=2.78e-07 $l=3.8e-08 $layer=LI1_cond $X=2.11 $Y=1.987
+ $X2=2.11 $Y2=2.025
r54 8 19 28.6876 $w=2.78e-07 $l=6.97e-07 $layer=LI1_cond $X=2.11 $Y=1.987
+ $X2=2.11 $Y2=1.29
r55 5 18 57.9147 $w=2.58e-07 $l=3.83732e-07 $layer=POLY_cond $X=2.445 $Y=1.125
+ $X2=2.135 $Y2=1.29
r56 5 7 102.827 $w=1.5e-07 $l=3.2e-07 $layer=POLY_cond $X=2.445 $Y=1.125
+ $X2=2.445 $Y2=0.805
r57 1 15 16.9318 $w=1.8e-07 $l=1.65e-07 $layer=POLY_cond $X=2.195 $Y=2.355
+ $X2=2.195 $Y2=2.19
r58 1 3 143.823 $w=1.8e-07 $l=3.7e-07 $layer=POLY_cond $X=2.195 $Y=2.355
+ $X2=2.195 $Y2=2.725
.ends

.subckt PM_SKY130_FD_SC_MS__DFXTP_1%A_209_368# 1 2 9 10 11 15 19 21 23 26 29 32
+ 36 38 40 43 44 45 46 50 51 54 55 61 62 64 68 72 76 77 82
c233 77 0 1.78324e-19 $X=5.315 $Y=1.315
c234 62 0 1.82292e-19 $X=1.595 $Y=1.515
c235 54 0 1.52766e-19 $X=1.18 $Y=1.985
c236 51 0 1.31987e-20 $X=5.675 $Y=2.215
c237 40 0 1.79812e-19 $X=4.78 $Y=2.71
c238 19 0 2.31753e-20 $X=3.58 $Y=0.715
r239 77 85 32.3493 $w=3.3e-07 $l=1.85e-07 $layer=POLY_cond $X=5.315 $Y=1.315
+ $X2=5.13 $Y2=1.315
r240 76 79 5.20458 $w=3.08e-07 $l=1.4e-07 $layer=LI1_cond $X=5.325 $Y=1.315
+ $X2=5.325 $Y2=1.455
r241 76 77 145.28 $w=1.7e-07 $l=1.7e-07 $layer=licon1_POLY $count=1 $X=5.315
+ $Y=1.315 $X2=5.315 $Y2=1.315
r242 72 73 18.2674 $w=1.68e-07 $l=2.8e-07 $layer=LI1_cond $X=4.865 $Y=2.71
+ $X2=4.865 $Y2=2.99
r243 68 70 11.0909 $w=1.68e-07 $l=1.7e-07 $layer=LI1_cond $X=3.375 $Y=2.71
+ $X2=3.375 $Y2=2.88
r244 64 66 11.0909 $w=1.68e-07 $l=1.7e-07 $layer=LI1_cond $X=2.165 $Y=2.71
+ $X2=2.165 $Y2=2.88
r245 62 83 39.3438 $w=3.3e-07 $l=2.25e-07 $layer=POLY_cond $X=1.595 $Y=1.515
+ $X2=1.595 $Y2=1.74
r246 62 82 46.2115 $w=3.3e-07 $l=1.65e-07 $layer=POLY_cond $X=1.595 $Y=1.515
+ $X2=1.595 $Y2=1.35
r247 61 62 145.28 $w=1.7e-07 $l=1.7e-07 $layer=licon1_POLY $count=1 $X=1.595
+ $Y=1.515 $X2=1.595 $Y2=1.515
r248 58 61 7.15912 $w=3.28e-07 $l=2.05e-07 $layer=LI1_cond $X=1.39 $Y=1.515
+ $X2=1.595 $Y2=1.515
r249 54 55 9.2801 $w=4.58e-07 $l=1.65e-07 $layer=LI1_cond $X=1.245 $Y=1.985
+ $X2=1.245 $Y2=1.82
r250 51 89 27.9778 $w=3.3e-07 $l=1.6e-07 $layer=POLY_cond $X=5.675 $Y=2.215
+ $X2=5.515 $Y2=2.215
r251 50 51 145.28 $w=1.7e-07 $l=1.7e-07 $layer=licon1_POLY $count=1 $X=5.675
+ $Y=2.215 $X2=5.675 $Y2=2.215
r252 48 50 24.0965 $w=3.28e-07 $l=6.9e-07 $layer=LI1_cond $X=5.675 $Y=2.905
+ $X2=5.675 $Y2=2.215
r253 47 73 0.716491 $w=1.7e-07 $l=8.5e-08 $layer=LI1_cond $X=4.95 $Y=2.99
+ $X2=4.865 $Y2=2.99
r254 46 48 7.76618 $w=1.7e-07 $l=2.03101e-07 $layer=LI1_cond $X=5.51 $Y=2.99
+ $X2=5.675 $Y2=2.905
r255 46 47 36.5348 $w=1.68e-07 $l=5.6e-07 $layer=LI1_cond $X=5.51 $Y=2.99
+ $X2=4.95 $Y2=2.99
r256 44 79 4.25403 $w=1.7e-07 $l=1.55e-07 $layer=LI1_cond $X=5.17 $Y=1.455
+ $X2=5.325 $Y2=1.455
r257 44 45 14.3529 $w=1.68e-07 $l=2.2e-07 $layer=LI1_cond $X=5.17 $Y=1.455
+ $X2=4.95 $Y2=1.455
r258 43 72 5.54545 $w=1.68e-07 $l=8.5e-08 $layer=LI1_cond $X=4.865 $Y=2.625
+ $X2=4.865 $Y2=2.71
r259 42 45 6.81649 $w=1.7e-07 $l=1.20208e-07 $layer=LI1_cond $X=4.865 $Y=1.54
+ $X2=4.95 $Y2=1.455
r260 42 43 70.7861 $w=1.68e-07 $l=1.085e-06 $layer=LI1_cond $X=4.865 $Y=1.54
+ $X2=4.865 $Y2=2.625
r261 41 68 0.716491 $w=1.7e-07 $l=8.5e-08 $layer=LI1_cond $X=3.46 $Y=2.71
+ $X2=3.375 $Y2=2.71
r262 40 72 0.716491 $w=1.7e-07 $l=8.5e-08 $layer=LI1_cond $X=4.78 $Y=2.71
+ $X2=4.865 $Y2=2.71
r263 40 41 86.1176 $w=1.68e-07 $l=1.32e-06 $layer=LI1_cond $X=4.78 $Y=2.71
+ $X2=3.46 $Y2=2.71
r264 39 66 0.716491 $w=1.7e-07 $l=8.5e-08 $layer=LI1_cond $X=2.25 $Y=2.88
+ $X2=2.165 $Y2=2.88
r265 38 70 0.716491 $w=1.7e-07 $l=8.5e-08 $layer=LI1_cond $X=3.29 $Y=2.88
+ $X2=3.375 $Y2=2.88
r266 38 39 67.8503 $w=1.68e-07 $l=1.04e-06 $layer=LI1_cond $X=3.29 $Y=2.88
+ $X2=2.25 $Y2=2.88
r267 37 57 5.73712 $w=1.7e-07 $l=2.7214e-07 $layer=LI1_cond $X=1.475 $Y=2.71
+ $X2=1.245 $Y2=2.802
r268 36 64 0.716491 $w=1.7e-07 $l=8.5e-08 $layer=LI1_cond $X=2.08 $Y=2.71
+ $X2=2.165 $Y2=2.71
r269 36 37 39.4706 $w=1.68e-07 $l=6.05e-07 $layer=LI1_cond $X=2.08 $Y=2.71
+ $X2=1.475 $Y2=2.71
r270 34 58 4.62375 $w=1.7e-07 $l=1.65e-07 $layer=LI1_cond $X=1.39 $Y=1.68
+ $X2=1.39 $Y2=1.515
r271 34 55 9.13369 $w=1.68e-07 $l=1.4e-07 $layer=LI1_cond $X=1.39 $Y=1.68
+ $X2=1.39 $Y2=1.82
r272 30 58 4.62375 $w=1.7e-07 $l=1.65e-07 $layer=LI1_cond $X=1.39 $Y=1.35
+ $X2=1.39 $Y2=1.515
r273 30 32 31.9679 $w=1.68e-07 $l=4.9e-07 $layer=LI1_cond $X=1.39 $Y=1.35
+ $X2=1.39 $Y2=0.86
r274 29 57 3.15363 $w=4.6e-07 $l=1.77e-07 $layer=LI1_cond $X=1.245 $Y=2.625
+ $X2=1.245 $Y2=2.802
r275 28 54 1.69011 $w=4.58e-07 $l=6.5e-08 $layer=LI1_cond $X=1.245 $Y=2.05
+ $X2=1.245 $Y2=1.985
r276 28 29 14.951 $w=4.58e-07 $l=5.75e-07 $layer=LI1_cond $X=1.245 $Y=2.05
+ $X2=1.245 $Y2=2.625
r277 24 89 16.9318 $w=1.8e-07 $l=1.65e-07 $layer=POLY_cond $X=5.515 $Y=2.38
+ $X2=5.515 $Y2=2.215
r278 24 26 143.823 $w=1.8e-07 $l=3.7e-07 $layer=POLY_cond $X=5.515 $Y=2.38
+ $X2=5.515 $Y2=2.75
r279 21 85 21.2229 $w=1.5e-07 $l=1.65e-07 $layer=POLY_cond $X=5.13 $Y=1.15
+ $X2=5.13 $Y2=1.315
r280 21 23 123.713 $w=1.5e-07 $l=3.85e-07 $layer=POLY_cond $X=5.13 $Y=1.15
+ $X2=5.13 $Y2=0.765
r281 17 19 235.872 $w=1.5e-07 $l=4.6e-07 $layer=POLY_cond $X=3.58 $Y=0.255
+ $X2=3.58 $Y2=0.715
r282 13 15 275.984 $w=1.8e-07 $l=7.1e-07 $layer=POLY_cond $X=2.73 $Y=1.815
+ $X2=2.73 $Y2=2.525
r283 12 83 21.2229 $w=1.5e-07 $l=1.65e-07 $layer=POLY_cond $X=1.76 $Y=1.74
+ $X2=1.595 $Y2=1.74
r284 11 13 27.2212 $w=1.5e-07 $l=1.21861e-07 $layer=POLY_cond $X=2.64 $Y=1.74
+ $X2=2.73 $Y2=1.815
r285 11 12 451.234 $w=1.5e-07 $l=8.8e-07 $layer=POLY_cond $X=2.64 $Y=1.74
+ $X2=1.76 $Y2=1.74
r286 9 17 26.9307 $w=1.5e-07 $l=1.06066e-07 $layer=POLY_cond $X=3.505 $Y=0.18
+ $X2=3.58 $Y2=0.255
r287 9 10 894.777 $w=1.5e-07 $l=1.745e-06 $layer=POLY_cond $X=3.505 $Y=0.18
+ $X2=1.76 $Y2=0.18
r288 7 10 26.9307 $w=1.5e-07 $l=1.06066e-07 $layer=POLY_cond $X=1.685 $Y=0.255
+ $X2=1.76 $Y2=0.18
r289 7 82 561.479 $w=1.5e-07 $l=1.095e-06 $layer=POLY_cond $X=1.685 $Y=0.255
+ $X2=1.685 $Y2=1.35
r290 2 57 400 $w=1.7e-07 $l=1.04031e-06 $layer=licon1_PDIFF $count=1 $X=1.045
+ $Y=1.84 $X2=1.18 $Y2=2.815
r291 2 54 400 $w=1.7e-07 $l=2.01494e-07 $layer=licon1_PDIFF $count=1 $X=1.045
+ $Y=1.84 $X2=1.18 $Y2=1.985
r292 1 32 182 $w=1.7e-07 $l=5.81464e-07 $layer=licon1_NDIFF $count=1 $X=1.19
+ $Y=0.37 $X2=1.39 $Y2=0.86
.ends

.subckt PM_SKY130_FD_SC_MS__DFXTP_1%A_713_458# 1 2 9 14 16 17 18 22 26 28 35 36
+ 38 40
c92 28 0 1.54375e-19 $X=4.095 $Y=1.115
r93 35 36 8.58424 $w=2.73e-07 $l=1.65e-07 $layer=LI1_cond $X=4.472 $Y=2.29
+ $X2=4.472 $Y2=2.125
r94 32 40 28.8456 $w=2.59e-07 $l=1.55e-07 $layer=POLY_cond $X=4.095 $Y=1.25
+ $X2=3.94 $Y2=1.25
r95 31 32 145.28 $w=1.7e-07 $l=1.7e-07 $layer=licon1_POLY $count=1 $X=4.095
+ $Y=1.25 $X2=4.095 $Y2=1.25
r96 28 31 4.71454 $w=3.28e-07 $l=1.35e-07 $layer=LI1_cond $X=4.095 $Y=1.115
+ $X2=4.095 $Y2=1.25
r97 24 26 13.3743 $w=1.68e-07 $l=2.05e-07 $layer=LI1_cond $X=4.915 $Y=1.03
+ $X2=4.915 $Y2=0.825
r98 23 38 5.16603 $w=1.7e-07 $l=8.5e-08 $layer=LI1_cond $X=4.61 $Y=1.115
+ $X2=4.525 $Y2=1.115
r99 22 24 6.81649 $w=1.7e-07 $l=1.20208e-07 $layer=LI1_cond $X=4.83 $Y=1.115
+ $X2=4.915 $Y2=1.03
r100 22 23 14.3529 $w=1.68e-07 $l=2.2e-07 $layer=LI1_cond $X=4.83 $Y=1.115
+ $X2=4.61 $Y2=1.115
r101 20 38 1.34256 $w=1.7e-07 $l=8.5e-08 $layer=LI1_cond $X=4.525 $Y=1.2
+ $X2=4.525 $Y2=1.115
r102 20 36 60.3476 $w=1.68e-07 $l=9.25e-07 $layer=LI1_cond $X=4.525 $Y=1.2
+ $X2=4.525 $Y2=2.125
r103 19 28 4.62375 $w=1.7e-07 $l=1.65e-07 $layer=LI1_cond $X=4.26 $Y=1.115
+ $X2=4.095 $Y2=1.115
r104 18 38 5.16603 $w=1.7e-07 $l=8.5e-08 $layer=LI1_cond $X=4.44 $Y=1.115
+ $X2=4.525 $Y2=1.115
r105 18 19 11.7433 $w=1.68e-07 $l=1.8e-07 $layer=LI1_cond $X=4.44 $Y=1.115
+ $X2=4.26 $Y2=1.115
r106 16 17 60.4563 $w=1.8e-07 $l=1.5e-07 $layer=POLY_cond $X=3.662 $Y=2.29
+ $X2=3.662 $Y2=2.44
r107 12 40 15.5386 $w=1.5e-07 $l=1.65e-07 $layer=POLY_cond $X=3.94 $Y=1.085
+ $X2=3.94 $Y2=1.25
r108 12 14 189.723 $w=1.5e-07 $l=3.7e-07 $layer=POLY_cond $X=3.94 $Y=1.085
+ $X2=3.94 $Y2=0.715
r109 10 40 47.4556 $w=2.59e-07 $l=3.27261e-07 $layer=POLY_cond $X=3.685 $Y=1.415
+ $X2=3.94 $Y2=1.25
r110 10 16 448.67 $w=1.5e-07 $l=8.75e-07 $layer=POLY_cond $X=3.685 $Y=1.415
+ $X2=3.685 $Y2=2.29
r111 9 17 76.3167 $w=1.8e-07 $l=2.85e-07 $layer=POLY_cond $X=3.655 $Y=2.725
+ $X2=3.655 $Y2=2.44
r112 2 35 600 $w=1.7e-07 $l=2.31409e-07 $layer=licon1_PDIFF $count=1 $X=4.365
+ $Y=2.12 $X2=4.51 $Y2=2.29
r113 1 26 182 $w=1.7e-07 $l=5.4909e-07 $layer=licon1_NDIFF $count=1 $X=4.695
+ $Y=0.375 $X2=4.915 $Y2=0.825
.ends

.subckt PM_SKY130_FD_SC_MS__DFXTP_1%A_564_463# 1 2 9 12 15 18 20 21 22 23 27 30
+ 35 37 42
c115 18 0 1.31199e-19 $X=4.597 $Y=1.45
r116 38 42 26.5669 $w=2.54e-07 $l=1.4e-07 $layer=POLY_cond $X=4.135 $Y=1.79
+ $X2=4.275 $Y2=1.79
r117 37 40 8.48463 $w=2.98e-07 $l=1.65e-07 $layer=LI1_cond $X=4.12 $Y=1.79
+ $X2=4.12 $Y2=1.955
r118 37 38 145.28 $w=1.7e-07 $l=1.7e-07 $layer=licon1_POLY $count=1 $X=4.135
+ $Y=1.79 $X2=4.135 $Y2=1.79
r119 34 35 8.47192 $w=3.38e-07 $l=1.65e-07 $layer=LI1_cond $X=2.955 $Y=2.455
+ $X2=3.12 $Y2=2.455
r120 31 34 3.72849 $w=3.38e-07 $l=1.1e-07 $layer=LI1_cond $X=2.845 $Y=2.455
+ $X2=2.955 $Y2=2.455
r121 30 40 21.5294 $w=1.68e-07 $l=3.3e-07 $layer=LI1_cond $X=4.055 $Y=2.285
+ $X2=4.055 $Y2=1.955
r122 25 27 27.3977 $w=2.63e-07 $l=6.3e-07 $layer=LI1_cond $X=3.287 $Y=1.41
+ $X2=3.287 $Y2=0.78
r123 23 30 6.81649 $w=1.7e-07 $l=1.20208e-07 $layer=LI1_cond $X=3.97 $Y=2.37
+ $X2=4.055 $Y2=2.285
r124 23 35 55.4545 $w=1.68e-07 $l=8.5e-07 $layer=LI1_cond $X=3.97 $Y=2.37
+ $X2=3.12 $Y2=2.37
r125 21 25 7.24806 $w=1.7e-07 $l=1.69245e-07 $layer=LI1_cond $X=3.155 $Y=1.495
+ $X2=3.287 $Y2=1.41
r126 21 22 14.6791 $w=1.68e-07 $l=2.25e-07 $layer=LI1_cond $X=3.155 $Y=1.495
+ $X2=2.93 $Y2=1.495
r127 20 31 4.80115 $w=1.7e-07 $l=1.7e-07 $layer=LI1_cond $X=2.845 $Y=2.285
+ $X2=2.845 $Y2=2.455
r128 19 22 6.81649 $w=1.7e-07 $l=1.20208e-07 $layer=LI1_cond $X=2.845 $Y=1.58
+ $X2=2.93 $Y2=1.495
r129 19 20 45.9947 $w=1.68e-07 $l=7.05e-07 $layer=LI1_cond $X=2.845 $Y=1.58
+ $X2=2.845 $Y2=2.285
r130 17 18 51.0119 $w=1.95e-07 $l=1.5e-07 $layer=POLY_cond $X=4.597 $Y=1.3
+ $X2=4.597 $Y2=1.45
r131 15 17 333.298 $w=1.5e-07 $l=6.5e-07 $layer=POLY_cond $X=4.62 $Y=0.65
+ $X2=4.62 $Y2=1.3
r132 12 42 56.9291 $w=2.54e-07 $l=3.73497e-07 $layer=POLY_cond $X=4.575 $Y=1.625
+ $X2=4.275 $Y2=1.79
r133 12 18 89.734 $w=1.5e-07 $l=1.75e-07 $layer=POLY_cond $X=4.575 $Y=1.625
+ $X2=4.575 $Y2=1.45
r134 7 42 10.883 $w=1.8e-07 $l=1.65e-07 $layer=POLY_cond $X=4.275 $Y=1.955
+ $X2=4.275 $Y2=1.79
r135 7 9 227.395 $w=1.8e-07 $l=5.85e-07 $layer=POLY_cond $X=4.275 $Y=1.955
+ $X2=4.275 $Y2=2.54
r136 2 34 600 $w=1.7e-07 $l=2.01494e-07 $layer=licon1_PDIFF $count=1 $X=2.82
+ $Y=2.315 $X2=2.955 $Y2=2.46
r137 1 27 182 $w=1.7e-07 $l=2.15639e-07 $layer=licon1_NDIFF $count=1 $X=3.18
+ $Y=0.625 $X2=3.325 $Y2=0.78
.ends

.subckt PM_SKY130_FD_SC_MS__DFXTP_1%A_1210_314# 1 2 9 13 17 21 25 26 29 33 37 39
+ 41 42 46 47 48 50 51 52
c117 51 0 1.70354e-19 $X=7.62 $Y=1.515
c118 47 0 3.28719e-19 $X=6.215 $Y=1.735
c119 13 0 6.36416e-20 $X=6.18 $Y=0.83
r120 51 58 40.6903 $w=3.3e-07 $l=1.65e-07 $layer=POLY_cond $X=7.62 $Y=1.515
+ $X2=7.62 $Y2=1.68
r121 51 57 46.2115 $w=3.3e-07 $l=1.65e-07 $layer=POLY_cond $X=7.62 $Y=1.515
+ $X2=7.62 $Y2=1.35
r122 50 53 8.3232 $w=3.58e-07 $l=2.6e-07 $layer=LI1_cond $X=7.555 $Y=1.515
+ $X2=7.555 $Y2=1.775
r123 50 52 8.51103 $w=3.58e-07 $l=1.65e-07 $layer=LI1_cond $X=7.555 $Y=1.515
+ $X2=7.555 $Y2=1.35
r124 50 51 145.28 $w=1.7e-07 $l=1.7e-07 $layer=licon1_POLY $count=1 $X=7.62
+ $Y=1.515 $X2=7.62 $Y2=1.515
r125 46 47 72.64 $w=1.7e-07 $l=3.4e-07 $layer=licon1_POLY $count=2 $X=6.215
+ $Y=1.735 $X2=6.215 $Y2=1.735
r126 43 52 21.5294 $w=1.68e-07 $l=3.3e-07 $layer=LI1_cond $X=7.46 $Y=1.02
+ $X2=7.46 $Y2=1.35
r127 41 43 6.81649 $w=1.7e-07 $l=1.20208e-07 $layer=LI1_cond $X=7.375 $Y=0.935
+ $X2=7.46 $Y2=1.02
r128 41 42 21.8556 $w=1.68e-07 $l=3.35e-07 $layer=LI1_cond $X=7.375 $Y=0.935
+ $X2=7.04 $Y2=0.935
r129 40 48 7.02821 $w=1.7e-07 $l=1.25e-07 $layer=LI1_cond $X=7.01 $Y=1.775
+ $X2=6.885 $Y2=1.775
r130 39 53 5.14255 $w=1.7e-07 $l=1.8e-07 $layer=LI1_cond $X=7.375 $Y=1.775
+ $X2=7.555 $Y2=1.775
r131 39 40 23.8128 $w=1.68e-07 $l=3.65e-07 $layer=LI1_cond $X=7.375 $Y=1.775
+ $X2=7.01 $Y2=1.775
r132 35 42 7.14316 $w=1.7e-07 $l=1.62019e-07 $layer=LI1_cond $X=6.915 $Y=0.85
+ $X2=7.04 $Y2=0.935
r133 35 37 9.45003 $w=2.48e-07 $l=2.05e-07 $layer=LI1_cond $X=6.915 $Y=0.85
+ $X2=6.915 $Y2=0.645
r134 31 48 0.00168595 $w=2.5e-07 $l=8.5e-08 $layer=LI1_cond $X=6.885 $Y=1.86
+ $X2=6.885 $Y2=1.775
r135 31 33 5.76222 $w=2.48e-07 $l=1.25e-07 $layer=LI1_cond $X=6.885 $Y=1.86
+ $X2=6.885 $Y2=1.985
r136 30 46 4.72267 $w=1.7e-07 $l=1.92678e-07 $layer=LI1_cond $X=6.38 $Y=1.775
+ $X2=6.215 $Y2=1.715
r137 29 48 7.02821 $w=1.7e-07 $l=1.25e-07 $layer=LI1_cond $X=6.76 $Y=1.775
+ $X2=6.885 $Y2=1.775
r138 29 30 24.7914 $w=1.68e-07 $l=3.8e-07 $layer=LI1_cond $X=6.76 $Y=1.775
+ $X2=6.38 $Y2=1.775
r139 25 47 59.4528 $w=3.3e-07 $l=3.4e-07 $layer=POLY_cond $X=6.215 $Y=2.075
+ $X2=6.215 $Y2=1.735
r140 25 26 40.6903 $w=3.3e-07 $l=1.65e-07 $layer=POLY_cond $X=6.215 $Y=2.075
+ $X2=6.215 $Y2=2.24
r141 24 47 39.6269 $w=3.3e-07 $l=1.65e-07 $layer=POLY_cond $X=6.215 $Y=1.57
+ $X2=6.215 $Y2=1.735
r142 21 57 312.787 $w=1.5e-07 $l=6.1e-07 $layer=POLY_cond $X=7.665 $Y=0.74
+ $X2=7.665 $Y2=1.35
r143 17 58 279.871 $w=1.8e-07 $l=7.2e-07 $layer=POLY_cond $X=7.655 $Y=2.4
+ $X2=7.655 $Y2=1.68
r144 13 24 379.447 $w=1.5e-07 $l=7.4e-07 $layer=POLY_cond $X=6.18 $Y=0.83
+ $X2=6.18 $Y2=1.57
r145 9 26 198.242 $w=1.8e-07 $l=5.1e-07 $layer=POLY_cond $X=6.14 $Y=2.75
+ $X2=6.14 $Y2=2.24
r146 2 33 300 $w=1.7e-07 $l=2.05061e-07 $layer=licon1_PDIFF $count=2 $X=6.78
+ $Y=1.84 $X2=6.925 $Y2=1.985
r147 1 37 182 $w=1.7e-07 $l=3.39853e-07 $layer=licon1_NDIFF $count=1 $X=6.81
+ $Y=0.37 $X2=6.955 $Y2=0.645
.ends

.subckt PM_SKY130_FD_SC_MS__DFXTP_1%A_1014_424# 1 2 7 9 13 17 19 23 24 26 28 31
+ 33 35
c98 35 0 1.31987e-20 $X=6.875 $Y=1.355
c99 33 0 1.70354e-19 $X=7.04 $Y=1.355
c100 28 0 1.71535e-19 $X=5.735 $Y=1.71
c101 24 0 1.78324e-19 $X=5.29 $Y=1.795
c102 23 0 1.57185e-19 $X=5.65 $Y=1.795
c103 13 0 2.87771e-20 $X=7.17 $Y=0.645
r104 33 35 8.46218 $w=3.28e-07 $l=1.65e-07 $layer=LI1_cond $X=7.04 $Y=1.355
+ $X2=6.875 $Y2=1.355
r105 33 34 145.28 $w=1.7e-07 $l=1.7e-07 $layer=licon1_POLY $count=1 $X=7.04
+ $Y=1.355 $X2=7.04 $Y2=1.355
r106 30 31 1.34256 $w=1.7e-07 $l=8.5e-08 $layer=LI1_cond $X=5.82 $Y=1.315
+ $X2=5.735 $Y2=1.315
r107 30 35 68.8289 $w=1.68e-07 $l=1.055e-06 $layer=LI1_cond $X=5.82 $Y=1.315
+ $X2=6.875 $Y2=1.315
r108 27 31 5.16603 $w=1.7e-07 $l=8.5e-08 $layer=LI1_cond $X=5.735 $Y=1.4
+ $X2=5.735 $Y2=1.315
r109 27 28 20.2246 $w=1.68e-07 $l=3.1e-07 $layer=LI1_cond $X=5.735 $Y=1.4
+ $X2=5.735 $Y2=1.71
r110 26 31 5.16603 $w=1.7e-07 $l=8.5e-08 $layer=LI1_cond $X=5.735 $Y=1.23
+ $X2=5.735 $Y2=1.315
r111 25 26 16.3102 $w=1.68e-07 $l=2.5e-07 $layer=LI1_cond $X=5.735 $Y=0.98
+ $X2=5.735 $Y2=1.23
r112 23 28 6.81649 $w=1.7e-07 $l=1.20208e-07 $layer=LI1_cond $X=5.65 $Y=1.795
+ $X2=5.735 $Y2=1.71
r113 23 24 23.4866 $w=1.68e-07 $l=3.6e-07 $layer=LI1_cond $X=5.65 $Y=1.795
+ $X2=5.29 $Y2=1.795
r114 19 25 7.14316 $w=2.5e-07 $l=1.62019e-07 $layer=LI1_cond $X=5.65 $Y=0.855
+ $X2=5.735 $Y2=0.98
r115 19 21 9.45003 $w=2.48e-07 $l=2.05e-07 $layer=LI1_cond $X=5.65 $Y=0.855
+ $X2=5.445 $Y2=0.855
r116 15 24 6.81649 $w=1.7e-07 $l=1.20208e-07 $layer=LI1_cond $X=5.205 $Y=1.88
+ $X2=5.29 $Y2=1.795
r117 15 17 39.1444 $w=1.68e-07 $l=6e-07 $layer=LI1_cond $X=5.205 $Y=1.88
+ $X2=5.205 $Y2=2.48
r118 11 34 39.0103 $w=3.67e-07 $l=2.13014e-07 $layer=POLY_cond $X=7.17 $Y=1.19
+ $X2=7.06 $Y2=1.355
r119 11 13 279.457 $w=1.5e-07 $l=5.45e-07 $layer=POLY_cond $X=7.17 $Y=1.19
+ $X2=7.17 $Y2=0.645
r120 7 34 34.2012 $w=3.67e-07 $l=2.05122e-07 $layer=POLY_cond $X=7.15 $Y=1.52
+ $X2=7.06 $Y2=1.355
r121 7 9 287.645 $w=1.8e-07 $l=7.4e-07 $layer=POLY_cond $X=7.15 $Y=1.52 $X2=7.15
+ $Y2=2.26
r122 2 17 600 $w=1.7e-07 $l=4.22137e-07 $layer=licon1_PDIFF $count=1 $X=5.07
+ $Y=2.12 $X2=5.205 $Y2=2.48
r123 1 21 182 $w=1.7e-07 $l=4.28515e-07 $layer=licon1_NDIFF $count=1 $X=5.205
+ $Y=0.49 $X2=5.445 $Y2=0.815
.ends

.subckt PM_SKY130_FD_SC_MS__DFXTP_1%VPWR 1 2 3 4 5 20 24 28 31 32 33 35 40 52 58
+ 59 62 65 72 79
r99 79 80 9.3 $w=1.7e-07 $l=1.7e-07 $layer=mcon $count=1 $X=7.44 $Y=3.33
+ $X2=7.44 $Y2=3.33
r100 72 75 9.7783 $w=3.28e-07 $l=2.8e-07 $layer=LI1_cond $X=3.965 $Y=3.05
+ $X2=3.965 $Y2=3.33
r101 62 63 4.65 $w=1.7e-07 $l=3.4e-07 $layer=mcon $count=2 $X=0.72 $Y=3.33
+ $X2=0.72 $Y2=3.33
r102 59 80 0.133793 $w=4.9e-07 $l=4.8e-07 $layer=MET1_cond $X=7.92 $Y=3.33
+ $X2=7.44 $Y2=3.33
r103 58 59 9.3 $w=1.7e-07 $l=1.7e-07 $layer=mcon $count=1 $X=7.92 $Y=3.33
+ $X2=7.92 $Y2=3.33
r104 56 79 8.61065 $w=1.7e-07 $l=1.65e-07 $layer=LI1_cond $X=7.54 $Y=3.33
+ $X2=7.375 $Y2=3.33
r105 56 58 24.7914 $w=1.68e-07 $l=3.8e-07 $layer=LI1_cond $X=7.54 $Y=3.33
+ $X2=7.92 $Y2=3.33
r106 55 80 0.133793 $w=4.9e-07 $l=4.8e-07 $layer=MET1_cond $X=6.96 $Y=3.33
+ $X2=7.44 $Y2=3.33
r107 54 55 4.65 $w=1.7e-07 $l=3.4e-07 $layer=mcon $count=2 $X=6.96 $Y=3.33
+ $X2=6.96 $Y2=3.33
r108 52 79 8.61065 $w=1.7e-07 $l=1.65e-07 $layer=LI1_cond $X=7.21 $Y=3.33
+ $X2=7.375 $Y2=3.33
r109 52 54 16.3102 $w=1.68e-07 $l=2.5e-07 $layer=LI1_cond $X=7.21 $Y=3.33
+ $X2=6.96 $Y2=3.33
r110 51 55 0.267585 $w=4.9e-07 $l=9.6e-07 $layer=MET1_cond $X=6 $Y=3.33 $X2=6.96
+ $Y2=3.33
r111 50 51 3.72 $w=1.7e-07 $l=4.25e-07 $layer=mcon $count=2 $X=6 $Y=3.33 $X2=6
+ $Y2=3.33
r112 48 75 4.62375 $w=1.7e-07 $l=1.65e-07 $layer=LI1_cond $X=4.13 $Y=3.33
+ $X2=3.965 $Y2=3.33
r113 48 50 122 $w=1.68e-07 $l=1.87e-06 $layer=LI1_cond $X=4.13 $Y=3.33 $X2=6
+ $Y2=3.33
r114 46 47 4.65 $w=1.7e-07 $l=3.4e-07 $layer=mcon $count=2 $X=3.6 $Y=3.33
+ $X2=3.6 $Y2=3.33
r115 44 47 0.401378 $w=4.9e-07 $l=1.44e-06 $layer=MET1_cond $X=2.16 $Y=3.33
+ $X2=3.6 $Y2=3.33
r116 44 69 0.133793 $w=4.9e-07 $l=4.8e-07 $layer=MET1_cond $X=2.16 $Y=3.33
+ $X2=1.68 $Y2=3.33
r117 43 46 93.9465 $w=1.68e-07 $l=1.44e-06 $layer=LI1_cond $X=2.16 $Y=3.33
+ $X2=3.6 $Y2=3.33
r118 43 44 4.65 $w=1.7e-07 $l=3.4e-07 $layer=mcon $count=2 $X=2.16 $Y=3.33
+ $X2=2.16 $Y2=3.33
r119 41 43 16.3102 $w=1.68e-07 $l=2.5e-07 $layer=LI1_cond $X=1.91 $Y=3.33
+ $X2=2.16 $Y2=3.33
r120 40 75 4.62375 $w=1.7e-07 $l=1.65e-07 $layer=LI1_cond $X=3.8 $Y=3.33
+ $X2=3.965 $Y2=3.33
r121 40 46 13.0481 $w=1.68e-07 $l=2e-07 $layer=LI1_cond $X=3.8 $Y=3.33 $X2=3.6
+ $Y2=3.33
r122 39 69 0.133793 $w=4.9e-07 $l=4.8e-07 $layer=MET1_cond $X=1.2 $Y=3.33
+ $X2=1.68 $Y2=3.33
r123 39 63 0.133793 $w=4.9e-07 $l=4.8e-07 $layer=MET1_cond $X=1.2 $Y=3.33
+ $X2=0.72 $Y2=3.33
r124 38 39 9.3 $w=1.7e-07 $l=1.7e-07 $layer=mcon $count=1 $X=1.2 $Y=3.33 $X2=1.2
+ $Y2=3.33
r125 36 62 5.16603 $w=1.7e-07 $l=8.5e-08 $layer=LI1_cond $X=0.815 $Y=3.33
+ $X2=0.73 $Y2=3.33
r126 36 38 25.1176 $w=1.68e-07 $l=3.85e-07 $layer=LI1_cond $X=0.815 $Y=3.33
+ $X2=1.2 $Y2=3.33
r127 35 41 4.71304 $w=1.7e-07 $l=1.68e-07 $layer=LI1_cond $X=1.742 $Y=3.33
+ $X2=1.91 $Y2=3.33
r128 35 69 9.3 $w=1.7e-07 $l=1.7e-07 $layer=mcon $count=1 $X=1.68 $Y=3.33
+ $X2=1.68 $Y2=3.33
r129 35 65 9.63236 $w=3.33e-07 $l=2.8e-07 $layer=LI1_cond $X=1.742 $Y=3.33
+ $X2=1.742 $Y2=3.05
r130 35 38 24.4652 $w=1.68e-07 $l=3.75e-07 $layer=LI1_cond $X=1.575 $Y=3.33
+ $X2=1.2 $Y2=3.33
r131 33 51 0.535171 $w=4.9e-07 $l=1.92e-06 $layer=MET1_cond $X=4.08 $Y=3.33
+ $X2=6 $Y2=3.33
r132 33 47 0.133793 $w=4.9e-07 $l=4.8e-07 $layer=MET1_cond $X=4.08 $Y=3.33
+ $X2=3.6 $Y2=3.33
r133 33 75 3.72 $w=1.7e-07 $l=4.25e-07 $layer=mcon $count=2 $X=4.08 $Y=3.33
+ $X2=4.08 $Y2=3.33
r134 31 50 13.0481 $w=1.68e-07 $l=2e-07 $layer=LI1_cond $X=6.2 $Y=3.33 $X2=6
+ $Y2=3.33
r135 31 32 8.61065 $w=1.7e-07 $l=1.65e-07 $layer=LI1_cond $X=6.2 $Y=3.33
+ $X2=6.365 $Y2=3.33
r136 30 54 28.0535 $w=1.68e-07 $l=4.3e-07 $layer=LI1_cond $X=6.53 $Y=3.33
+ $X2=6.96 $Y2=3.33
r137 30 32 8.61065 $w=1.7e-07 $l=1.65e-07 $layer=LI1_cond $X=6.53 $Y=3.33
+ $X2=6.365 $Y2=3.33
r138 26 79 0.89609 $w=3.3e-07 $l=8.5e-08 $layer=LI1_cond $X=7.375 $Y=3.245
+ $X2=7.375 $Y2=3.33
r139 26 28 38.764 $w=3.28e-07 $l=1.11e-06 $layer=LI1_cond $X=7.375 $Y=3.245
+ $X2=7.375 $Y2=2.135
r140 22 32 0.89609 $w=3.3e-07 $l=8.5e-08 $layer=LI1_cond $X=6.365 $Y=3.245
+ $X2=6.365 $Y2=3.33
r141 22 24 17.2866 $w=3.28e-07 $l=4.95e-07 $layer=LI1_cond $X=6.365 $Y=3.245
+ $X2=6.365 $Y2=2.75
r142 18 62 1.34256 $w=1.7e-07 $l=8.5e-08 $layer=LI1_cond $X=0.73 $Y=3.245
+ $X2=0.73 $Y2=3.33
r143 18 20 51.5401 $w=1.68e-07 $l=7.9e-07 $layer=LI1_cond $X=0.73 $Y=3.245
+ $X2=0.73 $Y2=2.455
r144 5 28 300 $w=1.7e-07 $l=3.5616e-07 $layer=licon1_PDIFF $count=2 $X=7.24
+ $Y=1.84 $X2=7.375 $Y2=2.135
r145 4 24 600 $w=1.7e-07 $l=2.69165e-07 $layer=licon1_PDIFF $count=1 $X=6.23
+ $Y=2.54 $X2=6.365 $Y2=2.75
r146 3 72 600 $w=1.7e-07 $l=6.35551e-07 $layer=licon1_PDIFF $count=1 $X=3.745
+ $Y=2.515 $X2=3.965 $Y2=3.05
r147 2 65 600 $w=1.7e-07 $l=6.03158e-07 $layer=licon1_PDIFF $count=1 $X=1.595
+ $Y=2.515 $X2=1.74 $Y2=3.05
r148 1 20 300 $w=1.7e-07 $l=6.79154e-07 $layer=licon1_PDIFF $count=2 $X=0.595
+ $Y=1.84 $X2=0.73 $Y2=2.455
.ends

.subckt PM_SKY130_FD_SC_MS__DFXTP_1%A_457_503# 1 2 9 11 13
r30 11 13 12.0695 $w=1.68e-07 $l=1.85e-07 $layer=LI1_cond $X=2.59 $Y=1.155
+ $X2=2.775 $Y2=1.155
r31 7 11 6.81649 $w=1.7e-07 $l=1.20208e-07 $layer=LI1_cond $X=2.505 $Y=1.24
+ $X2=2.59 $Y2=1.155
r32 7 9 79.5936 $w=1.68e-07 $l=1.22e-06 $layer=LI1_cond $X=2.505 $Y=1.24
+ $X2=2.505 $Y2=2.46
r33 2 9 600 $w=1.7e-07 $l=2.45967e-07 $layer=licon1_PDIFF $count=1 $X=2.285
+ $Y=2.515 $X2=2.505 $Y2=2.46
r34 1 13 182 $w=1.7e-07 $l=6.75574e-07 $layer=licon1_NDIFF $count=1 $X=2.52
+ $Y=0.595 $X2=2.775 $Y2=1.155
.ends

.subckt PM_SKY130_FD_SC_MS__DFXTP_1%Q 1 2 9 14 15 16 17 28
c27 17 0 2.87771e-20 $X=7.835 $Y=0.84
r28 21 28 0.800308 $w=3.58e-07 $l=2.5e-08 $layer=LI1_cond $X=7.895 $Y=0.95
+ $X2=7.895 $Y2=0.925
r29 17 30 8.03084 $w=3.58e-07 $l=1.5e-07 $layer=LI1_cond $X=7.895 $Y=0.98
+ $X2=7.895 $Y2=1.13
r30 17 21 0.960369 $w=3.58e-07 $l=3e-08 $layer=LI1_cond $X=7.895 $Y=0.98
+ $X2=7.895 $Y2=0.95
r31 17 28 0.960369 $w=3.58e-07 $l=3e-08 $layer=LI1_cond $X=7.895 $Y=0.895
+ $X2=7.895 $Y2=0.925
r32 16 17 12.1647 $w=3.58e-07 $l=3.8e-07 $layer=LI1_cond $X=7.895 $Y=0.515
+ $X2=7.895 $Y2=0.895
r33 15 30 58.7166 $w=1.68e-07 $l=9e-07 $layer=LI1_cond $X=7.99 $Y=2.03 $X2=7.99
+ $Y2=1.13
r34 14 15 6.59029 $w=3.58e-07 $l=1.05e-07 $layer=LI1_cond $X=7.895 $Y=2.135
+ $X2=7.895 $Y2=2.03