* File: sky130_fd_sc_ms__a41o_4.pex.spice
* Created: Wed Sep  2 11:56:32 2020
* Program "Calibre xRC"
* Version "v2018.4_34.26"
* Nominal Temperature: 27C
* Circuit Temperature: 27C
* 
.subckt PM_SKY130_FD_SC_MS__A41O_4%B1 3 7 11 15 17 21 24
c44 11 0 1.35715e-19 $X=0.92 $Y=0.86
r45 23 24 63.5016 $w=3.15e-07 $l=4.15e-07 $layer=POLY_cond $X=0.505 $Y=1.615
+ $X2=0.92 $Y2=1.615
r46 22 23 2.29524 $w=3.15e-07 $l=1.5e-08 $layer=POLY_cond $X=0.49 $Y=1.615
+ $X2=0.505 $Y2=1.615
r47 20 22 16.0667 $w=3.15e-07 $l=1.05e-07 $layer=POLY_cond $X=0.385 $Y=1.615
+ $X2=0.49 $Y2=1.615
r48 20 21 145.28 $w=1.7e-07 $l=1.7e-07 $layer=licon1_POLY $count=1 $X=0.385
+ $Y=1.615 $X2=0.385 $Y2=1.615
r49 17 21 5.06376 $w=3.28e-07 $l=1.45e-07 $layer=LI1_cond $X=0.24 $Y=1.615
+ $X2=0.385 $Y2=1.615
r50 13 24 13.0063 $w=3.15e-07 $l=8.5e-08 $layer=POLY_cond $X=1.005 $Y=1.615
+ $X2=0.92 $Y2=1.615
r51 13 15 274.04 $w=1.8e-07 $l=7.05e-07 $layer=POLY_cond $X=1.005 $Y=1.755
+ $X2=1.005 $Y2=2.46
r52 9 24 20.1192 $w=1.5e-07 $l=1.65e-07 $layer=POLY_cond $X=0.92 $Y=1.45
+ $X2=0.92 $Y2=1.615
r53 9 11 302.532 $w=1.5e-07 $l=5.9e-07 $layer=POLY_cond $X=0.92 $Y=1.45 $X2=0.92
+ $Y2=0.86
r54 5 23 15.85 $w=1.8e-07 $l=1.65e-07 $layer=POLY_cond $X=0.505 $Y=1.78
+ $X2=0.505 $Y2=1.615
r55 5 7 264.323 $w=1.8e-07 $l=6.8e-07 $layer=POLY_cond $X=0.505 $Y=1.78
+ $X2=0.505 $Y2=2.46
r56 1 22 20.1192 $w=1.5e-07 $l=1.65e-07 $layer=POLY_cond $X=0.49 $Y=1.45
+ $X2=0.49 $Y2=1.615
r57 1 3 302.532 $w=1.5e-07 $l=5.9e-07 $layer=POLY_cond $X=0.49 $Y=1.45 $X2=0.49
+ $Y2=0.86
.ends

.subckt PM_SKY130_FD_SC_MS__A41O_4%A_113_98# 1 2 3 10 12 13 15 18 22 24 26 29 31
+ 33 36 38 40 42 44 51 55 56 57 62 63 78
c145 56 0 6.95417e-20 $X=4.165 $Y=0.34
r146 77 78 75.1904 $w=3.3e-07 $l=4.3e-07 $layer=POLY_cond $X=2.935 $Y=1.505
+ $X2=3.365 $Y2=1.505
r147 76 77 3.49723 $w=3.3e-07 $l=2e-08 $layer=POLY_cond $X=2.915 $Y=1.505
+ $X2=2.935 $Y2=1.505
r148 75 76 71.6931 $w=3.3e-07 $l=4.1e-07 $layer=POLY_cond $X=2.505 $Y=1.505
+ $X2=2.915 $Y2=1.505
r149 74 75 6.99445 $w=3.3e-07 $l=4e-08 $layer=POLY_cond $X=2.465 $Y=1.505
+ $X2=2.505 $Y2=1.505
r150 71 72 14.8632 $w=3.3e-07 $l=8.5e-08 $layer=POLY_cond $X=1.93 $Y=1.505
+ $X2=2.015 $Y2=1.505
r151 63 66 6.11144 $w=3.28e-07 $l=1.75e-07 $layer=LI1_cond $X=4.33 $Y=0.34
+ $X2=4.33 $Y2=0.515
r152 60 61 16.4106 $w=5.65e-07 $l=7.6e-07 $layer=LI1_cond $X=0.882 $Y=0.745
+ $X2=0.882 $Y2=1.505
r153 59 60 2.37522 $w=5.65e-07 $l=2.25386e-07 $layer=LI1_cond $X=0.705 $Y=0.635
+ $X2=0.882 $Y2=0.745
r154 56 63 4.62375 $w=1.7e-07 $l=1.65e-07 $layer=LI1_cond $X=4.165 $Y=0.34
+ $X2=4.33 $Y2=0.34
r155 56 57 33.9251 $w=1.68e-07 $l=5.2e-07 $layer=LI1_cond $X=4.165 $Y=0.34
+ $X2=3.645 $Y2=0.34
r156 54 57 6.81649 $w=1.7e-07 $l=1.20208e-07 $layer=LI1_cond $X=3.56 $Y=0.425
+ $X2=3.645 $Y2=0.34
r157 54 55 15.3316 $w=1.68e-07 $l=2.35e-07 $layer=LI1_cond $X=3.56 $Y=0.425
+ $X2=3.56 $Y2=0.66
r158 52 74 42.841 $w=3.3e-07 $l=2.45e-07 $layer=POLY_cond $X=2.22 $Y=1.505
+ $X2=2.465 $Y2=1.505
r159 52 72 35.8466 $w=3.3e-07 $l=2.05e-07 $layer=POLY_cond $X=2.22 $Y=1.505
+ $X2=2.015 $Y2=1.505
r160 51 52 96.8533 $w=1.7e-07 $l=2.55e-07 $layer=licon1_POLY $count=1 $X=2.22
+ $Y=1.505 $X2=2.22 $Y2=1.505
r161 49 71 68.1959 $w=3.3e-07 $l=3.9e-07 $layer=POLY_cond $X=1.54 $Y=1.505
+ $X2=1.93 $Y2=1.505
r162 49 68 6.99445 $w=3.3e-07 $l=4e-08 $layer=POLY_cond $X=1.54 $Y=1.505 $X2=1.5
+ $Y2=1.505
r163 48 51 23.7473 $w=3.28e-07 $l=6.8e-07 $layer=LI1_cond $X=1.54 $Y=1.505
+ $X2=2.22 $Y2=1.505
r164 48 49 96.8533 $w=1.7e-07 $l=2.55e-07 $layer=licon1_POLY $count=1 $X=1.54
+ $Y=1.505 $X2=1.54 $Y2=1.505
r165 46 61 3.88339 $w=3.3e-07 $l=3.43e-07 $layer=LI1_cond $X=1.225 $Y=1.505
+ $X2=0.882 $Y2=1.505
r166 46 48 11.0006 $w=3.28e-07 $l=3.15e-07 $layer=LI1_cond $X=1.225 $Y=1.505
+ $X2=1.54 $Y2=1.505
r167 45 60 7.93092 $w=1.7e-07 $l=3.43e-07 $layer=LI1_cond $X=1.225 $Y=0.745
+ $X2=0.882 $Y2=0.745
r168 44 55 6.81649 $w=1.7e-07 $l=1.20208e-07 $layer=LI1_cond $X=3.475 $Y=0.745
+ $X2=3.56 $Y2=0.66
r169 44 45 146.791 $w=1.68e-07 $l=2.25e-06 $layer=LI1_cond $X=3.475 $Y=0.745
+ $X2=1.225 $Y2=0.745
r170 42 61 10.1272 $w=5.65e-07 $l=1.99825e-07 $layer=LI1_cond $X=0.805 $Y=1.67
+ $X2=0.882 $Y2=1.505
r171 42 62 18.2674 $w=1.68e-07 $l=2.8e-07 $layer=LI1_cond $X=0.805 $Y=1.67
+ $X2=0.805 $Y2=1.95
r172 38 62 7.41084 $w=2.73e-07 $l=1.37e-07 $layer=LI1_cond $X=0.752 $Y=2.087
+ $X2=0.752 $Y2=1.95
r173 38 40 1.1734 $w=2.73e-07 $l=2.8e-08 $layer=LI1_cond $X=0.752 $Y=2.087
+ $X2=0.752 $Y2=2.115
r174 34 78 16.9318 $w=1.8e-07 $l=1.65e-07 $layer=POLY_cond $X=3.365 $Y=1.67
+ $X2=3.365 $Y2=1.505
r175 34 36 283.758 $w=1.8e-07 $l=7.3e-07 $layer=POLY_cond $X=3.365 $Y=1.67
+ $X2=3.365 $Y2=2.4
r176 31 77 21.2229 $w=1.5e-07 $l=1.65e-07 $layer=POLY_cond $X=2.935 $Y=1.34
+ $X2=2.935 $Y2=1.505
r177 31 33 154.24 $w=1.5e-07 $l=4.8e-07 $layer=POLY_cond $X=2.935 $Y=1.34
+ $X2=2.935 $Y2=0.86
r178 27 76 16.9318 $w=1.8e-07 $l=1.65e-07 $layer=POLY_cond $X=2.915 $Y=1.67
+ $X2=2.915 $Y2=1.505
r179 27 29 283.758 $w=1.8e-07 $l=7.3e-07 $layer=POLY_cond $X=2.915 $Y=1.67
+ $X2=2.915 $Y2=2.4
r180 24 75 21.2229 $w=1.5e-07 $l=1.65e-07 $layer=POLY_cond $X=2.505 $Y=1.34
+ $X2=2.505 $Y2=1.505
r181 24 26 154.24 $w=1.5e-07 $l=4.8e-07 $layer=POLY_cond $X=2.505 $Y=1.34
+ $X2=2.505 $Y2=0.86
r182 20 74 16.9318 $w=1.8e-07 $l=1.65e-07 $layer=POLY_cond $X=2.465 $Y=1.67
+ $X2=2.465 $Y2=1.505
r183 20 22 283.758 $w=1.8e-07 $l=7.3e-07 $layer=POLY_cond $X=2.465 $Y=1.67
+ $X2=2.465 $Y2=2.4
r184 16 72 16.9318 $w=1.8e-07 $l=1.65e-07 $layer=POLY_cond $X=2.015 $Y=1.67
+ $X2=2.015 $Y2=1.505
r185 16 18 283.758 $w=1.8e-07 $l=7.3e-07 $layer=POLY_cond $X=2.015 $Y=1.67
+ $X2=2.015 $Y2=2.4
r186 13 71 21.2229 $w=1.5e-07 $l=1.65e-07 $layer=POLY_cond $X=1.93 $Y=1.34
+ $X2=1.93 $Y2=1.505
r187 13 15 154.24 $w=1.5e-07 $l=4.8e-07 $layer=POLY_cond $X=1.93 $Y=1.34
+ $X2=1.93 $Y2=0.86
r188 10 68 21.2229 $w=1.5e-07 $l=1.65e-07 $layer=POLY_cond $X=1.5 $Y=1.34
+ $X2=1.5 $Y2=1.505
r189 10 12 154.24 $w=1.5e-07 $l=4.8e-07 $layer=POLY_cond $X=1.5 $Y=1.34 $X2=1.5
+ $Y2=0.86
r190 3 40 300 $w=1.7e-07 $l=2.50799e-07 $layer=licon1_PDIFF $count=2 $X=0.595
+ $Y=1.96 $X2=0.78 $Y2=2.115
r191 2 66 182 $w=1.7e-07 $l=2.03286e-07 $layer=licon1_NDIFF $count=1 $X=4.19
+ $Y=0.37 $X2=4.33 $Y2=0.515
r192 1 59 91 $w=1.7e-07 $l=2.03286e-07 $layer=licon1_NDIFF $count=2 $X=0.565
+ $Y=0.49 $X2=0.705 $Y2=0.635
.ends

.subckt PM_SKY130_FD_SC_MS__A41O_4%A1 3 7 11 15 17 18 28
c53 15 0 1.79117e-19 $X=4.545 $Y=0.74
r54 27 28 2.62292 $w=3.3e-07 $l=1.5e-08 $layer=POLY_cond $X=4.53 $Y=1.615
+ $X2=4.545 $Y2=1.615
r55 26 27 72.5674 $w=3.3e-07 $l=4.15e-07 $layer=POLY_cond $X=4.115 $Y=1.615
+ $X2=4.53 $Y2=1.615
r56 24 26 14.8632 $w=3.3e-07 $l=8.5e-08 $layer=POLY_cond $X=4.03 $Y=1.615
+ $X2=4.115 $Y2=1.615
r57 21 24 25.3549 $w=3.3e-07 $l=1.45e-07 $layer=POLY_cond $X=3.885 $Y=1.615
+ $X2=4.03 $Y2=1.615
r58 18 24 145.28 $w=1.7e-07 $l=1.7e-07 $layer=licon1_POLY $count=1 $X=4.03
+ $Y=1.615 $X2=4.03 $Y2=1.615
r59 17 18 15.0167 $w=3.28e-07 $l=4.3e-07 $layer=LI1_cond $X=3.6 $Y=1.615
+ $X2=4.03 $Y2=1.615
r60 13 28 21.2229 $w=1.5e-07 $l=1.65e-07 $layer=POLY_cond $X=4.545 $Y=1.45
+ $X2=4.545 $Y2=1.615
r61 13 15 364.064 $w=1.5e-07 $l=7.1e-07 $layer=POLY_cond $X=4.545 $Y=1.45
+ $X2=4.545 $Y2=0.74
r62 9 27 16.9318 $w=1.8e-07 $l=1.65e-07 $layer=POLY_cond $X=4.53 $Y=1.78
+ $X2=4.53 $Y2=1.615
r63 9 11 264.323 $w=1.8e-07 $l=6.8e-07 $layer=POLY_cond $X=4.53 $Y=1.78 $X2=4.53
+ $Y2=2.46
r64 5 26 21.2229 $w=1.5e-07 $l=1.65e-07 $layer=POLY_cond $X=4.115 $Y=1.45
+ $X2=4.115 $Y2=1.615
r65 5 7 364.064 $w=1.5e-07 $l=7.1e-07 $layer=POLY_cond $X=4.115 $Y=1.45
+ $X2=4.115 $Y2=0.74
r66 1 21 16.9318 $w=1.8e-07 $l=1.65e-07 $layer=POLY_cond $X=3.885 $Y=1.78
+ $X2=3.885 $Y2=1.615
r67 1 3 264.323 $w=1.8e-07 $l=6.8e-07 $layer=POLY_cond $X=3.885 $Y=1.78
+ $X2=3.885 $Y2=2.46
.ends

.subckt PM_SKY130_FD_SC_MS__A41O_4%A2 3 7 11 15 17 18 26
r53 25 26 35.3114 $w=2.73e-07 $l=2e-07 $layer=POLY_cond $X=5.205 $Y=1.615
+ $X2=5.405 $Y2=1.615
r54 23 25 24.7179 $w=2.73e-07 $l=1.4e-07 $layer=POLY_cond $X=5.065 $Y=1.615
+ $X2=5.205 $Y2=1.615
r55 21 23 15.8901 $w=2.73e-07 $l=9e-08 $layer=POLY_cond $X=4.975 $Y=1.615
+ $X2=5.065 $Y2=1.615
r56 17 18 16.7628 $w=3.28e-07 $l=4.8e-07 $layer=LI1_cond $X=5.04 $Y=1.615
+ $X2=5.52 $Y2=1.615
r57 17 23 145.28 $w=1.7e-07 $l=1.7e-07 $layer=licon1_POLY $count=1 $X=5.065
+ $Y=1.615 $X2=5.065 $Y2=1.615
r58 13 26 44.1392 $w=2.73e-07 $l=3.22102e-07 $layer=POLY_cond $X=5.655 $Y=1.78
+ $X2=5.405 $Y2=1.615
r59 13 15 264.323 $w=1.8e-07 $l=6.8e-07 $layer=POLY_cond $X=5.655 $Y=1.78
+ $X2=5.655 $Y2=2.46
r60 9 26 16.7618 $w=1.5e-07 $l=1.65e-07 $layer=POLY_cond $X=5.405 $Y=1.45
+ $X2=5.405 $Y2=1.615
r61 9 11 364.064 $w=1.5e-07 $l=7.1e-07 $layer=POLY_cond $X=5.405 $Y=1.45
+ $X2=5.405 $Y2=0.74
r62 5 25 12.5437 $w=1.8e-07 $l=1.65e-07 $layer=POLY_cond $X=5.205 $Y=1.78
+ $X2=5.205 $Y2=1.615
r63 5 7 264.323 $w=1.8e-07 $l=6.8e-07 $layer=POLY_cond $X=5.205 $Y=1.78
+ $X2=5.205 $Y2=2.46
r64 1 21 16.7618 $w=1.5e-07 $l=1.65e-07 $layer=POLY_cond $X=4.975 $Y=1.45
+ $X2=4.975 $Y2=1.615
r65 1 3 364.064 $w=1.5e-07 $l=7.1e-07 $layer=POLY_cond $X=4.975 $Y=1.45
+ $X2=4.975 $Y2=0.74
.ends

.subckt PM_SKY130_FD_SC_MS__A41O_4%A3 3 7 11 15 17 18 19 30
c56 11 0 1.72297e-19 $X=6.705 $Y=2.46
c57 7 0 1.25271e-19 $X=6.38 $Y=0.74
r58 29 30 18.3604 $w=3.3e-07 $l=1.05e-07 $layer=POLY_cond $X=6.705 $Y=1.615
+ $X2=6.81 $Y2=1.615
r59 27 29 14.8632 $w=3.3e-07 $l=8.5e-08 $layer=POLY_cond $X=6.62 $Y=1.615
+ $X2=6.705 $Y2=1.615
r60 27 28 72.64 $w=1.7e-07 $l=3.4e-07 $layer=licon1_POLY $count=2 $X=6.62
+ $Y=1.615 $X2=6.62 $Y2=1.615
r61 25 27 41.9667 $w=3.3e-07 $l=2.4e-07 $layer=POLY_cond $X=6.38 $Y=1.615
+ $X2=6.62 $Y2=1.615
r62 23 25 30.6007 $w=3.3e-07 $l=1.75e-07 $layer=POLY_cond $X=6.205 $Y=1.615
+ $X2=6.38 $Y2=1.615
r63 19 28 11.8737 $w=3.28e-07 $l=3.4e-07 $layer=LI1_cond $X=6.96 $Y=1.615
+ $X2=6.62 $Y2=1.615
r64 18 28 4.88915 $w=3.28e-07 $l=1.4e-07 $layer=LI1_cond $X=6.48 $Y=1.615
+ $X2=6.62 $Y2=1.615
r65 17 18 16.7628 $w=3.28e-07 $l=4.8e-07 $layer=LI1_cond $X=6 $Y=1.615 $X2=6.48
+ $Y2=1.615
r66 13 30 21.2229 $w=1.5e-07 $l=1.65e-07 $layer=POLY_cond $X=6.81 $Y=1.45
+ $X2=6.81 $Y2=1.615
r67 13 15 364.064 $w=1.5e-07 $l=7.1e-07 $layer=POLY_cond $X=6.81 $Y=1.45
+ $X2=6.81 $Y2=0.74
r68 9 29 16.9318 $w=1.8e-07 $l=1.65e-07 $layer=POLY_cond $X=6.705 $Y=1.78
+ $X2=6.705 $Y2=1.615
r69 9 11 264.323 $w=1.8e-07 $l=6.8e-07 $layer=POLY_cond $X=6.705 $Y=1.78
+ $X2=6.705 $Y2=2.46
r70 5 25 21.2229 $w=1.5e-07 $l=1.65e-07 $layer=POLY_cond $X=6.38 $Y=1.45
+ $X2=6.38 $Y2=1.615
r71 5 7 364.064 $w=1.5e-07 $l=7.1e-07 $layer=POLY_cond $X=6.38 $Y=1.45 $X2=6.38
+ $Y2=0.74
r72 1 23 16.9318 $w=1.8e-07 $l=1.65e-07 $layer=POLY_cond $X=6.205 $Y=1.78
+ $X2=6.205 $Y2=1.615
r73 1 3 264.323 $w=1.8e-07 $l=6.8e-07 $layer=POLY_cond $X=6.205 $Y=1.78
+ $X2=6.205 $Y2=2.46
.ends

.subckt PM_SKY130_FD_SC_MS__A41O_4%A4 3 7 11 15 17 18 28
r40 27 28 2.62292 $w=3.3e-07 $l=1.5e-08 $layer=POLY_cond $X=7.655 $Y=1.615
+ $X2=7.67 $Y2=1.615
r41 25 27 28.8521 $w=3.3e-07 $l=1.65e-07 $layer=POLY_cond $X=7.49 $Y=1.615
+ $X2=7.655 $Y2=1.615
r42 23 25 43.7153 $w=3.3e-07 $l=2.5e-07 $layer=POLY_cond $X=7.24 $Y=1.615
+ $X2=7.49 $Y2=1.615
r43 21 23 6.12014 $w=3.3e-07 $l=3.5e-08 $layer=POLY_cond $X=7.205 $Y=1.615
+ $X2=7.24 $Y2=1.615
r44 17 18 16.7628 $w=3.28e-07 $l=4.8e-07 $layer=LI1_cond $X=7.44 $Y=1.615
+ $X2=7.92 $Y2=1.615
r45 17 25 145.28 $w=1.7e-07 $l=1.7e-07 $layer=licon1_POLY $count=1 $X=7.49
+ $Y=1.615 $X2=7.49 $Y2=1.615
r46 13 28 21.2229 $w=1.5e-07 $l=1.65e-07 $layer=POLY_cond $X=7.67 $Y=1.45
+ $X2=7.67 $Y2=1.615
r47 13 15 364.064 $w=1.5e-07 $l=7.1e-07 $layer=POLY_cond $X=7.67 $Y=1.45
+ $X2=7.67 $Y2=0.74
r48 9 27 16.9318 $w=1.8e-07 $l=1.65e-07 $layer=POLY_cond $X=7.655 $Y=1.78
+ $X2=7.655 $Y2=1.615
r49 9 11 264.323 $w=1.8e-07 $l=6.8e-07 $layer=POLY_cond $X=7.655 $Y=1.78
+ $X2=7.655 $Y2=2.46
r50 5 23 21.2229 $w=1.5e-07 $l=1.65e-07 $layer=POLY_cond $X=7.24 $Y=1.45
+ $X2=7.24 $Y2=1.615
r51 5 7 364.064 $w=1.5e-07 $l=7.1e-07 $layer=POLY_cond $X=7.24 $Y=1.45 $X2=7.24
+ $Y2=0.74
r52 1 21 16.9318 $w=1.8e-07 $l=1.65e-07 $layer=POLY_cond $X=7.205 $Y=1.78
+ $X2=7.205 $Y2=1.615
r53 1 3 264.323 $w=1.8e-07 $l=6.8e-07 $layer=POLY_cond $X=7.205 $Y=1.78
+ $X2=7.205 $Y2=2.46
.ends

.subckt PM_SKY130_FD_SC_MS__A41O_4%A_27_392# 1 2 3 4 5 6 21 25 26 29 34 35 37 38
+ 41 45 47 51 53 55 57 59 63 65 67
c128 59 0 1.25754e-19 $X=1.23 $Y=2.375
c129 51 0 1.72297e-19 $X=6.43 $Y=2.815
r130 55 69 2.6405 $w=3.3e-07 $l=8.5e-08 $layer=LI1_cond $X=7.43 $Y=2.12 $X2=7.43
+ $Y2=2.035
r131 55 57 24.2711 $w=3.28e-07 $l=6.95e-07 $layer=LI1_cond $X=7.43 $Y=2.12
+ $X2=7.43 $Y2=2.815
r132 54 67 8.61065 $w=1.7e-07 $l=1.65e-07 $layer=LI1_cond $X=6.595 $Y=2.035
+ $X2=6.43 $Y2=2.035
r133 53 69 5.12568 $w=1.7e-07 $l=1.65e-07 $layer=LI1_cond $X=7.265 $Y=2.035
+ $X2=7.43 $Y2=2.035
r134 53 54 43.7112 $w=1.68e-07 $l=6.7e-07 $layer=LI1_cond $X=7.265 $Y=2.035
+ $X2=6.595 $Y2=2.035
r135 49 67 0.89609 $w=3.3e-07 $l=8.5e-08 $layer=LI1_cond $X=6.43 $Y=2.12
+ $X2=6.43 $Y2=2.035
r136 49 51 24.2711 $w=3.28e-07 $l=6.95e-07 $layer=LI1_cond $X=6.43 $Y=2.12
+ $X2=6.43 $Y2=2.815
r137 48 65 8.61065 $w=1.7e-07 $l=1.65e-07 $layer=LI1_cond $X=5.595 $Y=2.035
+ $X2=5.43 $Y2=2.035
r138 47 67 8.61065 $w=1.7e-07 $l=1.65e-07 $layer=LI1_cond $X=6.265 $Y=2.035
+ $X2=6.43 $Y2=2.035
r139 47 48 43.7112 $w=1.68e-07 $l=6.7e-07 $layer=LI1_cond $X=6.265 $Y=2.035
+ $X2=5.595 $Y2=2.035
r140 43 65 0.89609 $w=3.3e-07 $l=8.5e-08 $layer=LI1_cond $X=5.43 $Y=2.12
+ $X2=5.43 $Y2=2.035
r141 43 45 24.2711 $w=3.28e-07 $l=6.95e-07 $layer=LI1_cond $X=5.43 $Y=2.12
+ $X2=5.43 $Y2=2.815
r142 42 61 5.12568 $w=1.7e-07 $l=1.65e-07 $layer=LI1_cond $X=4.375 $Y=2.035
+ $X2=4.21 $Y2=2.035
r143 41 65 8.61065 $w=1.7e-07 $l=1.65e-07 $layer=LI1_cond $X=5.265 $Y=2.035
+ $X2=5.43 $Y2=2.035
r144 41 42 58.0642 $w=1.68e-07 $l=8.9e-07 $layer=LI1_cond $X=5.265 $Y=2.035
+ $X2=4.375 $Y2=2.035
r145 38 63 2.88756 $w=3.3e-07 $l=8.5e-08 $layer=LI1_cond $X=4.21 $Y=2.29
+ $X2=4.21 $Y2=2.375
r146 37 61 2.6405 $w=3.3e-07 $l=8.5e-08 $layer=LI1_cond $X=4.21 $Y=2.12 $X2=4.21
+ $Y2=2.035
r147 37 38 5.93683 $w=3.28e-07 $l=1.7e-07 $layer=LI1_cond $X=4.21 $Y=2.12
+ $X2=4.21 $Y2=2.29
r148 36 59 3.80956 $w=1.7e-07 $l=1.65e-07 $layer=LI1_cond $X=1.395 $Y=2.375
+ $X2=1.23 $Y2=2.375
r149 35 63 3.80956 $w=1.7e-07 $l=1.65e-07 $layer=LI1_cond $X=4.045 $Y=2.375
+ $X2=4.21 $Y2=2.375
r150 35 36 172.888 $w=1.68e-07 $l=2.65e-06 $layer=LI1_cond $X=4.045 $Y=2.375
+ $X2=1.395 $Y2=2.375
r151 32 34 3.14303 $w=3.28e-07 $l=9e-08 $layer=LI1_cond $X=1.23 $Y=2.905
+ $X2=1.23 $Y2=2.815
r152 31 59 2.88756 $w=3.3e-07 $l=8.5e-08 $layer=LI1_cond $X=1.23 $Y=2.46
+ $X2=1.23 $Y2=2.375
r153 31 34 12.3975 $w=3.28e-07 $l=3.55e-07 $layer=LI1_cond $X=1.23 $Y=2.46
+ $X2=1.23 $Y2=2.815
r154 27 59 2.88756 $w=3.3e-07 $l=8.5e-08 $layer=LI1_cond $X=1.23 $Y=2.29
+ $X2=1.23 $Y2=2.375
r155 27 29 6.46067 $w=3.28e-07 $l=1.85e-07 $layer=LI1_cond $X=1.23 $Y=2.29
+ $X2=1.23 $Y2=2.105
r156 25 32 7.76618 $w=1.7e-07 $l=2.03101e-07 $layer=LI1_cond $X=1.065 $Y=2.99
+ $X2=1.23 $Y2=2.905
r157 25 26 40.4492 $w=1.68e-07 $l=6.2e-07 $layer=LI1_cond $X=1.065 $Y=2.99
+ $X2=0.445 $Y2=2.99
r158 21 24 24.4458 $w=3.28e-07 $l=7e-07 $layer=LI1_cond $X=0.28 $Y=2.115
+ $X2=0.28 $Y2=2.815
r159 19 26 7.76618 $w=1.7e-07 $l=2.03101e-07 $layer=LI1_cond $X=0.28 $Y=2.905
+ $X2=0.445 $Y2=2.99
r160 19 24 3.14303 $w=3.28e-07 $l=9e-08 $layer=LI1_cond $X=0.28 $Y=2.905
+ $X2=0.28 $Y2=2.815
r161 6 69 400 $w=1.7e-07 $l=2.12014e-07 $layer=licon1_PDIFF $count=1 $X=7.295
+ $Y=1.96 $X2=7.43 $Y2=2.115
r162 6 57 400 $w=1.7e-07 $l=9.20027e-07 $layer=licon1_PDIFF $count=1 $X=7.295
+ $Y=1.96 $X2=7.43 $Y2=2.815
r163 5 67 400 $w=1.7e-07 $l=2.12014e-07 $layer=licon1_PDIFF $count=1 $X=6.295
+ $Y=1.96 $X2=6.43 $Y2=2.115
r164 5 51 400 $w=1.7e-07 $l=9.20027e-07 $layer=licon1_PDIFF $count=1 $X=6.295
+ $Y=1.96 $X2=6.43 $Y2=2.815
r165 4 65 400 $w=1.7e-07 $l=2.12014e-07 $layer=licon1_PDIFF $count=1 $X=5.295
+ $Y=1.96 $X2=5.43 $Y2=2.115
r166 4 45 400 $w=1.7e-07 $l=9.20027e-07 $layer=licon1_PDIFF $count=1 $X=5.295
+ $Y=1.96 $X2=5.43 $Y2=2.815
r167 3 63 300 $w=1.7e-07 $l=6.01124e-07 $layer=licon1_PDIFF $count=2 $X=3.975
+ $Y=1.96 $X2=4.21 $Y2=2.455
r168 3 61 600 $w=1.7e-07 $l=3.02738e-07 $layer=licon1_PDIFF $count=1 $X=3.975
+ $Y=1.96 $X2=4.21 $Y2=2.115
r169 2 34 400 $w=1.7e-07 $l=9.20027e-07 $layer=licon1_PDIFF $count=1 $X=1.095
+ $Y=1.96 $X2=1.23 $Y2=2.815
r170 2 29 400 $w=1.7e-07 $l=2.01494e-07 $layer=licon1_PDIFF $count=1 $X=1.095
+ $Y=1.96 $X2=1.23 $Y2=2.105
r171 1 24 400 $w=1.7e-07 $l=9.24662e-07 $layer=licon1_PDIFF $count=1 $X=0.135
+ $Y=1.96 $X2=0.28 $Y2=2.815
r172 1 21 400 $w=1.7e-07 $l=2.15639e-07 $layer=licon1_PDIFF $count=1 $X=0.135
+ $Y=1.96 $X2=0.28 $Y2=2.115
.ends

.subckt PM_SKY130_FD_SC_MS__A41O_4%VPWR 1 2 3 4 5 6 7 24 28 32 36 40 44 46 48 53
+ 54 55 57 62 67 76 80 85 91 94 97 100 103 107
r107 106 107 9.3 $w=1.7e-07 $l=1.7e-07 $layer=mcon $count=1 $X=7.92 $Y=3.33
+ $X2=7.92 $Y2=3.33
r108 103 104 9.3 $w=1.7e-07 $l=1.7e-07 $layer=mcon $count=1 $X=6.96 $Y=3.33
+ $X2=6.96 $Y2=3.33
r109 100 101 9.3 $w=1.7e-07 $l=1.7e-07 $layer=mcon $count=1 $X=6 $Y=3.33 $X2=6
+ $Y2=3.33
r110 97 98 9.3 $w=1.7e-07 $l=1.7e-07 $layer=mcon $count=1 $X=3.6 $Y=3.33 $X2=3.6
+ $Y2=3.33
r111 94 95 9.3 $w=1.7e-07 $l=1.7e-07 $layer=mcon $count=1 $X=2.64 $Y=3.33
+ $X2=2.64 $Y2=3.33
r112 91 92 4.65 $w=1.7e-07 $l=3.4e-07 $layer=mcon $count=2 $X=1.68 $Y=3.33
+ $X2=1.68 $Y2=3.33
r113 89 107 0.133793 $w=4.9e-07 $l=4.8e-07 $layer=MET1_cond $X=7.44 $Y=3.33
+ $X2=7.92 $Y2=3.33
r114 89 104 0.133793 $w=4.9e-07 $l=4.8e-07 $layer=MET1_cond $X=7.44 $Y=3.33
+ $X2=6.96 $Y2=3.33
r115 88 89 9.3 $w=1.7e-07 $l=1.7e-07 $layer=mcon $count=1 $X=7.44 $Y=3.33
+ $X2=7.44 $Y2=3.33
r116 86 103 8.61065 $w=1.7e-07 $l=1.65e-07 $layer=LI1_cond $X=7.095 $Y=3.33
+ $X2=6.93 $Y2=3.33
r117 86 88 22.508 $w=1.68e-07 $l=3.45e-07 $layer=LI1_cond $X=7.095 $Y=3.33
+ $X2=7.44 $Y2=3.33
r118 85 106 4.01252 $w=1.7e-07 $l=1.82e-07 $layer=LI1_cond $X=7.795 $Y=3.33
+ $X2=7.977 $Y2=3.33
r119 85 88 23.1604 $w=1.68e-07 $l=3.55e-07 $layer=LI1_cond $X=7.795 $Y=3.33
+ $X2=7.44 $Y2=3.33
r120 84 104 0.133793 $w=4.9e-07 $l=4.8e-07 $layer=MET1_cond $X=6.48 $Y=3.33
+ $X2=6.96 $Y2=3.33
r121 84 101 0.133793 $w=4.9e-07 $l=4.8e-07 $layer=MET1_cond $X=6.48 $Y=3.33
+ $X2=6 $Y2=3.33
r122 83 84 9.3 $w=1.7e-07 $l=1.7e-07 $layer=mcon $count=1 $X=6.48 $Y=3.33
+ $X2=6.48 $Y2=3.33
r123 81 100 8.61065 $w=1.7e-07 $l=1.65e-07 $layer=LI1_cond $X=6.095 $Y=3.33
+ $X2=5.93 $Y2=3.33
r124 81 83 25.1176 $w=1.68e-07 $l=3.85e-07 $layer=LI1_cond $X=6.095 $Y=3.33
+ $X2=6.48 $Y2=3.33
r125 80 103 8.61065 $w=1.7e-07 $l=1.65e-07 $layer=LI1_cond $X=6.765 $Y=3.33
+ $X2=6.93 $Y2=3.33
r126 80 83 18.5936 $w=1.68e-07 $l=2.85e-07 $layer=LI1_cond $X=6.765 $Y=3.33
+ $X2=6.48 $Y2=3.33
r127 79 101 0.133793 $w=4.9e-07 $l=4.8e-07 $layer=MET1_cond $X=5.52 $Y=3.33
+ $X2=6 $Y2=3.33
r128 78 79 4.65 $w=1.7e-07 $l=3.4e-07 $layer=mcon $count=2 $X=5.52 $Y=3.33
+ $X2=5.52 $Y2=3.33
r129 76 100 8.61065 $w=1.7e-07 $l=1.65e-07 $layer=LI1_cond $X=5.765 $Y=3.33
+ $X2=5.93 $Y2=3.33
r130 76 78 15.984 $w=1.68e-07 $l=2.45e-07 $layer=LI1_cond $X=5.765 $Y=3.33
+ $X2=5.52 $Y2=3.33
r131 75 79 0.267585 $w=4.9e-07 $l=9.6e-07 $layer=MET1_cond $X=4.56 $Y=3.33
+ $X2=5.52 $Y2=3.33
r132 74 75 4.65 $w=1.7e-07 $l=3.4e-07 $layer=mcon $count=2 $X=4.56 $Y=3.33
+ $X2=4.56 $Y2=3.33
r133 72 97 8.9695 $w=1.7e-07 $l=1.75e-07 $layer=LI1_cond $X=3.775 $Y=3.33
+ $X2=3.6 $Y2=3.33
r134 72 74 51.2139 $w=1.68e-07 $l=7.85e-07 $layer=LI1_cond $X=3.775 $Y=3.33
+ $X2=4.56 $Y2=3.33
r135 71 98 0.133793 $w=4.9e-07 $l=4.8e-07 $layer=MET1_cond $X=3.12 $Y=3.33
+ $X2=3.6 $Y2=3.33
r136 71 95 0.133793 $w=4.9e-07 $l=4.8e-07 $layer=MET1_cond $X=3.12 $Y=3.33
+ $X2=2.64 $Y2=3.33
r137 70 71 9.3 $w=1.7e-07 $l=1.7e-07 $layer=mcon $count=1 $X=3.12 $Y=3.33
+ $X2=3.12 $Y2=3.33
r138 68 94 8.61065 $w=1.7e-07 $l=1.65e-07 $layer=LI1_cond $X=2.855 $Y=3.33
+ $X2=2.69 $Y2=3.33
r139 68 70 17.2888 $w=1.68e-07 $l=2.65e-07 $layer=LI1_cond $X=2.855 $Y=3.33
+ $X2=3.12 $Y2=3.33
r140 67 97 8.9695 $w=1.7e-07 $l=1.75e-07 $layer=LI1_cond $X=3.425 $Y=3.33
+ $X2=3.6 $Y2=3.33
r141 67 70 19.8984 $w=1.68e-07 $l=3.05e-07 $layer=LI1_cond $X=3.425 $Y=3.33
+ $X2=3.12 $Y2=3.33
r142 66 95 0.133793 $w=4.9e-07 $l=4.8e-07 $layer=MET1_cond $X=2.16 $Y=3.33
+ $X2=2.64 $Y2=3.33
r143 66 92 0.133793 $w=4.9e-07 $l=4.8e-07 $layer=MET1_cond $X=2.16 $Y=3.33
+ $X2=1.68 $Y2=3.33
r144 65 66 9.3 $w=1.7e-07 $l=1.7e-07 $layer=mcon $count=1 $X=2.16 $Y=3.33
+ $X2=2.16 $Y2=3.33
r145 63 91 8.61065 $w=1.7e-07 $l=1.65e-07 $layer=LI1_cond $X=1.955 $Y=3.33
+ $X2=1.79 $Y2=3.33
r146 63 65 13.3743 $w=1.68e-07 $l=2.05e-07 $layer=LI1_cond $X=1.955 $Y=3.33
+ $X2=2.16 $Y2=3.33
r147 62 94 8.61065 $w=1.7e-07 $l=1.65e-07 $layer=LI1_cond $X=2.525 $Y=3.33
+ $X2=2.69 $Y2=3.33
r148 62 65 23.8128 $w=1.68e-07 $l=3.65e-07 $layer=LI1_cond $X=2.525 $Y=3.33
+ $X2=2.16 $Y2=3.33
r149 60 92 0.401378 $w=4.9e-07 $l=1.44e-06 $layer=MET1_cond $X=0.24 $Y=3.33
+ $X2=1.68 $Y2=3.33
r150 59 60 4.65 $w=1.7e-07 $l=3.4e-07 $layer=mcon $count=2 $X=0.24 $Y=3.33
+ $X2=0.24 $Y2=3.33
r151 57 91 8.61065 $w=1.7e-07 $l=1.65e-07 $layer=LI1_cond $X=1.625 $Y=3.33
+ $X2=1.79 $Y2=3.33
r152 57 59 90.3583 $w=1.68e-07 $l=1.385e-06 $layer=LI1_cond $X=1.625 $Y=3.33
+ $X2=0.24 $Y2=3.33
r153 55 75 0.133793 $w=4.9e-07 $l=4.8e-07 $layer=MET1_cond $X=4.08 $Y=3.33
+ $X2=4.56 $Y2=3.33
r154 55 98 0.133793 $w=4.9e-07 $l=4.8e-07 $layer=MET1_cond $X=4.08 $Y=3.33
+ $X2=3.6 $Y2=3.33
r155 53 74 4.89305 $w=1.68e-07 $l=7.5e-08 $layer=LI1_cond $X=4.635 $Y=3.33
+ $X2=4.56 $Y2=3.33
r156 53 54 10.7288 $w=1.7e-07 $l=2.3e-07 $layer=LI1_cond $X=4.635 $Y=3.33
+ $X2=4.865 $Y2=3.33
r157 52 78 27.7273 $w=1.68e-07 $l=4.25e-07 $layer=LI1_cond $X=5.095 $Y=3.33
+ $X2=5.52 $Y2=3.33
r158 52 54 10.7288 $w=1.7e-07 $l=2.3e-07 $layer=LI1_cond $X=5.095 $Y=3.33
+ $X2=4.865 $Y2=3.33
r159 48 51 32.2684 $w=2.48e-07 $l=7e-07 $layer=LI1_cond $X=7.92 $Y=2.115
+ $X2=7.92 $Y2=2.815
r160 46 106 3.13065 $w=2.5e-07 $l=1.09864e-07 $layer=LI1_cond $X=7.92 $Y=3.245
+ $X2=7.977 $Y2=3.33
r161 46 51 19.822 $w=2.48e-07 $l=4.3e-07 $layer=LI1_cond $X=7.92 $Y=3.245
+ $X2=7.92 $Y2=2.815
r162 42 103 0.89609 $w=3.3e-07 $l=8.5e-08 $layer=LI1_cond $X=6.93 $Y=3.245
+ $X2=6.93 $Y2=3.33
r163 42 44 28.9857 $w=3.28e-07 $l=8.3e-07 $layer=LI1_cond $X=6.93 $Y=3.245
+ $X2=6.93 $Y2=2.415
r164 38 100 0.89609 $w=3.3e-07 $l=8.5e-08 $layer=LI1_cond $X=5.93 $Y=3.245
+ $X2=5.93 $Y2=3.33
r165 38 40 28.9857 $w=3.28e-07 $l=8.3e-07 $layer=LI1_cond $X=5.93 $Y=3.245
+ $X2=5.93 $Y2=2.415
r166 34 54 1.85547 $w=4.6e-07 $l=8.5e-08 $layer=LI1_cond $X=4.865 $Y=3.245
+ $X2=4.865 $Y2=3.33
r167 34 36 22.6215 $w=4.58e-07 $l=8.7e-07 $layer=LI1_cond $X=4.865 $Y=3.245
+ $X2=4.865 $Y2=2.375
r168 30 97 1.07557 $w=3.5e-07 $l=8.5e-08 $layer=LI1_cond $X=3.6 $Y=3.245 $X2=3.6
+ $Y2=3.33
r169 30 32 15.8049 $w=3.48e-07 $l=4.8e-07 $layer=LI1_cond $X=3.6 $Y=3.245
+ $X2=3.6 $Y2=2.765
r170 26 94 0.89609 $w=3.3e-07 $l=8.5e-08 $layer=LI1_cond $X=2.69 $Y=3.245
+ $X2=2.69 $Y2=3.33
r171 26 28 17.112 $w=3.28e-07 $l=4.9e-07 $layer=LI1_cond $X=2.69 $Y=3.245
+ $X2=2.69 $Y2=2.755
r172 22 91 0.89609 $w=3.3e-07 $l=8.5e-08 $layer=LI1_cond $X=1.79 $Y=3.245
+ $X2=1.79 $Y2=3.33
r173 22 24 17.112 $w=3.28e-07 $l=4.9e-07 $layer=LI1_cond $X=1.79 $Y=3.245
+ $X2=1.79 $Y2=2.755
r174 7 51 400 $w=1.7e-07 $l=9.20027e-07 $layer=licon1_PDIFF $count=1 $X=7.745
+ $Y=1.96 $X2=7.88 $Y2=2.815
r175 7 48 400 $w=1.7e-07 $l=2.12014e-07 $layer=licon1_PDIFF $count=1 $X=7.745
+ $Y=1.96 $X2=7.88 $Y2=2.115
r176 6 44 300 $w=1.7e-07 $l=5.18122e-07 $layer=licon1_PDIFF $count=2 $X=6.795
+ $Y=1.96 $X2=6.93 $Y2=2.415
r177 5 40 300 $w=1.7e-07 $l=5.3963e-07 $layer=licon1_PDIFF $count=2 $X=5.745
+ $Y=1.96 $X2=5.93 $Y2=2.415
r178 4 36 300 $w=1.7e-07 $l=5.23355e-07 $layer=licon1_PDIFF $count=2 $X=4.62
+ $Y=1.96 $X2=4.865 $Y2=2.375
r179 3 32 600 $w=1.7e-07 $l=9.94862e-07 $layer=licon1_PDIFF $count=1 $X=3.455
+ $Y=1.84 $X2=3.6 $Y2=2.765
r180 2 28 600 $w=1.7e-07 $l=9.80179e-07 $layer=licon1_PDIFF $count=1 $X=2.555
+ $Y=1.84 $X2=2.69 $Y2=2.755
r181 1 24 600 $w=1.7e-07 $l=9.84835e-07 $layer=licon1_PDIFF $count=1 $X=1.645
+ $Y=1.84 $X2=1.79 $Y2=2.755
.ends

.subckt PM_SKY130_FD_SC_MS__A41O_4%X 1 2 3 4 13 17 21 24 25 26 30
c41 13 0 1.35715e-19 $X=2.555 $Y=1.085
r42 26 30 2.40606 $w=7.5e-07 $l=1.4e-07 $layer=LI1_cond $X=2.93 $Y=1.98 $X2=2.93
+ $Y2=1.84
r43 25 30 2.79085 $w=7.48e-07 $l=1.75e-07 $layer=LI1_cond $X=2.93 $Y=1.665
+ $X2=2.93 $Y2=1.84
r44 24 25 5.90065 $w=7.48e-07 $l=3.7e-07 $layer=LI1_cond $X=2.93 $Y=1.295
+ $X2=2.93 $Y2=1.665
r45 21 24 1.99346 $w=7.48e-07 $l=1.25e-07 $layer=LI1_cond $X=2.93 $Y=1.17
+ $X2=2.93 $Y2=1.295
r46 21 23 2.06231 $w=7.5e-07 $l=8.5e-08 $layer=LI1_cond $X=2.93 $Y=1.17 $X2=2.93
+ $Y2=1.085
r47 17 26 6.44481 $w=2.8e-07 $l=3.75e-07 $layer=LI1_cond $X=2.555 $Y=1.98
+ $X2=2.93 $Y2=1.98
r48 17 19 12.965 $w=2.78e-07 $l=3.15e-07 $layer=LI1_cond $X=2.555 $Y=1.98
+ $X2=2.24 $Y2=1.98
r49 13 23 9.09843 $w=1.7e-07 $l=3.75e-07 $layer=LI1_cond $X=2.555 $Y=1.085
+ $X2=2.93 $Y2=1.085
r50 13 15 54.8021 $w=1.68e-07 $l=8.4e-07 $layer=LI1_cond $X=2.555 $Y=1.085
+ $X2=1.715 $Y2=1.085
r51 4 26 600 $w=1.7e-07 $l=2.27706e-07 $layer=licon1_PDIFF $count=1 $X=3.005
+ $Y=1.84 $X2=3.14 $Y2=2.01
r52 3 19 600 $w=1.7e-07 $l=2.38118e-07 $layer=licon1_PDIFF $count=1 $X=2.105
+ $Y=1.84 $X2=2.24 $Y2=2.02
r53 2 23 182 $w=1.7e-07 $l=6.61306e-07 $layer=licon1_NDIFF $count=1 $X=2.58
+ $Y=0.49 $X2=2.72 $Y2=1.085
r54 1 15 182 $w=1.7e-07 $l=6.61306e-07 $layer=licon1_NDIFF $count=1 $X=1.575
+ $Y=0.49 $X2=1.715 $Y2=1.085
.ends

.subckt PM_SKY130_FD_SC_MS__A41O_4%VGND 1 2 3 4 5 16 18 22 26 28 32 36 38 40 45
+ 50 60 61 67 70 73 76
r97 76 77 9.3 $w=1.7e-07 $l=1.7e-07 $layer=mcon $count=1 $X=7.44 $Y=0 $X2=7.44
+ $Y2=0
r98 73 74 4.65 $w=1.7e-07 $l=3.4e-07 $layer=mcon $count=2 $X=3.12 $Y=0 $X2=3.12
+ $Y2=0
r99 71 74 0.267585 $w=4.9e-07 $l=9.6e-07 $layer=MET1_cond $X=2.16 $Y=0 $X2=3.12
+ $Y2=0
r100 70 71 9.3 $w=1.7e-07 $l=1.7e-07 $layer=mcon $count=1 $X=2.16 $Y=0 $X2=2.16
+ $Y2=0
r101 67 68 9.3 $w=1.7e-07 $l=1.7e-07 $layer=mcon $count=1 $X=1.2 $Y=0 $X2=1.2
+ $Y2=0
r102 64 65 9.3 $w=1.7e-07 $l=1.7e-07 $layer=mcon $count=1 $X=0.24 $Y=0 $X2=0.24
+ $Y2=0
r103 61 77 0.133793 $w=4.9e-07 $l=4.8e-07 $layer=MET1_cond $X=7.92 $Y=0 $X2=7.44
+ $Y2=0
r104 60 61 9.3 $w=1.7e-07 $l=1.7e-07 $layer=mcon $count=1 $X=7.92 $Y=0 $X2=7.92
+ $Y2=0
r105 58 76 8.61065 $w=1.7e-07 $l=1.65e-07 $layer=LI1_cond $X=7.62 $Y=0 $X2=7.455
+ $Y2=0
r106 58 60 19.5722 $w=1.68e-07 $l=3e-07 $layer=LI1_cond $X=7.62 $Y=0 $X2=7.92
+ $Y2=0
r107 57 77 0.133793 $w=4.9e-07 $l=4.8e-07 $layer=MET1_cond $X=6.96 $Y=0 $X2=7.44
+ $Y2=0
r108 56 57 2.325 $w=1.7e-07 $l=6.8e-07 $layer=mcon $count=4 $X=6.96 $Y=0
+ $X2=6.96 $Y2=0
r109 54 74 0.133793 $w=4.9e-07 $l=4.8e-07 $layer=MET1_cond $X=3.6 $Y=0 $X2=3.12
+ $Y2=0
r110 53 56 219.209 $w=1.68e-07 $l=3.36e-06 $layer=LI1_cond $X=3.6 $Y=0 $X2=6.96
+ $Y2=0
r111 53 54 2.325 $w=1.7e-07 $l=6.8e-07 $layer=mcon $count=4 $X=3.6 $Y=0 $X2=3.6
+ $Y2=0
r112 51 73 7.02821 $w=1.7e-07 $l=1.25e-07 $layer=LI1_cond $X=3.305 $Y=0 $X2=3.18
+ $Y2=0
r113 51 53 19.246 $w=1.68e-07 $l=2.95e-07 $layer=LI1_cond $X=3.305 $Y=0 $X2=3.6
+ $Y2=0
r114 50 76 8.61065 $w=1.7e-07 $l=1.65e-07 $layer=LI1_cond $X=7.29 $Y=0 $X2=7.455
+ $Y2=0
r115 50 56 21.5294 $w=1.68e-07 $l=3.3e-07 $layer=LI1_cond $X=7.29 $Y=0 $X2=6.96
+ $Y2=0
r116 49 71 0.133793 $w=4.9e-07 $l=4.8e-07 $layer=MET1_cond $X=1.68 $Y=0 $X2=2.16
+ $Y2=0
r117 49 68 0.133793 $w=4.9e-07 $l=4.8e-07 $layer=MET1_cond $X=1.68 $Y=0 $X2=1.2
+ $Y2=0
r118 48 49 9.3 $w=1.7e-07 $l=1.7e-07 $layer=mcon $count=1 $X=1.68 $Y=0 $X2=1.68
+ $Y2=0
r119 46 67 8.61065 $w=1.7e-07 $l=1.65e-07 $layer=LI1_cond $X=1.375 $Y=0 $X2=1.21
+ $Y2=0
r120 46 48 19.8984 $w=1.68e-07 $l=3.05e-07 $layer=LI1_cond $X=1.375 $Y=0
+ $X2=1.68 $Y2=0
r121 45 70 8.61065 $w=1.7e-07 $l=1.65e-07 $layer=LI1_cond $X=2.055 $Y=0 $X2=2.22
+ $Y2=0
r122 45 48 24.4652 $w=1.68e-07 $l=3.75e-07 $layer=LI1_cond $X=2.055 $Y=0
+ $X2=1.68 $Y2=0
r123 44 68 0.133793 $w=4.9e-07 $l=4.8e-07 $layer=MET1_cond $X=0.72 $Y=0 $X2=1.2
+ $Y2=0
r124 44 65 0.133793 $w=4.9e-07 $l=4.8e-07 $layer=MET1_cond $X=0.72 $Y=0 $X2=0.24
+ $Y2=0
r125 43 44 9.3 $w=1.7e-07 $l=1.7e-07 $layer=mcon $count=1 $X=0.72 $Y=0 $X2=0.72
+ $Y2=0
r126 41 64 4.01803 $w=1.7e-07 $l=1.8e-07 $layer=LI1_cond $X=0.36 $Y=0 $X2=0.18
+ $Y2=0
r127 41 43 23.4866 $w=1.68e-07 $l=3.6e-07 $layer=LI1_cond $X=0.36 $Y=0 $X2=0.72
+ $Y2=0
r128 40 67 8.61065 $w=1.7e-07 $l=1.65e-07 $layer=LI1_cond $X=1.045 $Y=0 $X2=1.21
+ $Y2=0
r129 40 43 21.2032 $w=1.68e-07 $l=3.25e-07 $layer=LI1_cond $X=1.045 $Y=0
+ $X2=0.72 $Y2=0
r130 38 57 0.802756 $w=4.9e-07 $l=2.88e-06 $layer=MET1_cond $X=4.08 $Y=0
+ $X2=6.96 $Y2=0
r131 38 54 0.133793 $w=4.9e-07 $l=4.8e-07 $layer=MET1_cond $X=4.08 $Y=0 $X2=3.6
+ $Y2=0
r132 34 76 0.89609 $w=3.3e-07 $l=8.5e-08 $layer=LI1_cond $X=7.455 $Y=0.085
+ $X2=7.455 $Y2=0
r133 34 36 14.3182 $w=3.28e-07 $l=4.1e-07 $layer=LI1_cond $X=7.455 $Y=0.085
+ $X2=7.455 $Y2=0.495
r134 30 73 0.00168595 $w=2.5e-07 $l=8.5e-08 $layer=LI1_cond $X=3.18 $Y=0.085
+ $X2=3.18 $Y2=0
r135 30 32 11.0635 $w=2.48e-07 $l=2.4e-07 $layer=LI1_cond $X=3.18 $Y=0.085
+ $X2=3.18 $Y2=0.325
r136 29 70 8.61065 $w=1.7e-07 $l=1.65e-07 $layer=LI1_cond $X=2.385 $Y=0 $X2=2.22
+ $Y2=0
r137 28 73 7.02821 $w=1.7e-07 $l=1.25e-07 $layer=LI1_cond $X=3.055 $Y=0 $X2=3.18
+ $Y2=0
r138 28 29 43.7112 $w=1.68e-07 $l=6.7e-07 $layer=LI1_cond $X=3.055 $Y=0
+ $X2=2.385 $Y2=0
r139 24 70 0.89609 $w=3.3e-07 $l=8.5e-08 $layer=LI1_cond $X=2.22 $Y=0.085
+ $X2=2.22 $Y2=0
r140 24 26 10.1275 $w=3.28e-07 $l=2.9e-07 $layer=LI1_cond $X=2.22 $Y=0.085
+ $X2=2.22 $Y2=0.375
r141 20 67 0.89609 $w=3.3e-07 $l=8.5e-08 $layer=LI1_cond $X=1.21 $Y=0.085
+ $X2=1.21 $Y2=0
r142 20 22 10.1275 $w=3.28e-07 $l=2.9e-07 $layer=LI1_cond $X=1.21 $Y=0.085
+ $X2=1.21 $Y2=0.375
r143 16 64 3.12513 $w=2.5e-07 $l=1.09087e-07 $layer=LI1_cond $X=0.235 $Y=0.085
+ $X2=0.18 $Y2=0
r144 16 18 25.3537 $w=2.48e-07 $l=5.5e-07 $layer=LI1_cond $X=0.235 $Y=0.085
+ $X2=0.235 $Y2=0.635
r145 5 36 91 $w=1.7e-07 $l=1.92614e-07 $layer=licon1_NDIFF $count=2 $X=7.315
+ $Y=0.37 $X2=7.455 $Y2=0.495
r146 4 32 182 $w=1.7e-07 $l=2.80624e-07 $layer=licon1_NDIFF $count=1 $X=3.01
+ $Y=0.49 $X2=3.22 $Y2=0.325