* File: sky130_fd_sc_ms__xor3_2.pex.spice
* Created: Fri Aug 28 18:19:48 2020
* Program "Calibre xRC"
* Version "v2018.4_34.26"
* Nominal Temperature: 27C
* Circuit Temperature: 27C
* 
.subckt PM_SKY130_FD_SC_MS__XOR3_2%A_83_289# 1 2 3 4 15 19 23 24 26 27 31 34 36
+ 37 39 42 44 45 50
c114 27 0 1.40857e-19 $X=0.745 $Y=2.005
r115 48 50 5.5876 $w=3.28e-07 $l=1.6e-07 $layer=LI1_cond $X=4.15 $Y=1.1 $X2=4.31
+ $Y2=1.1
r116 44 46 19.8947 $w=6.68e-07 $l=6.85e-07 $layer=LI1_cond $X=4.06 $Y=2.07
+ $X2=4.06 $Y2=2.755
r117 44 45 10.6117 $w=6.68e-07 $l=1.65e-07 $layer=LI1_cond $X=4.06 $Y=2.07
+ $X2=4.06 $Y2=1.905
r118 40 50 4.62375 $w=1.7e-07 $l=1.65e-07 $layer=LI1_cond $X=4.31 $Y=1.265
+ $X2=4.31 $Y2=1.1
r119 40 45 41.754 $w=1.68e-07 $l=6.4e-07 $layer=LI1_cond $X=4.31 $Y=1.265
+ $X2=4.31 $Y2=1.905
r120 39 46 9.7861 $w=1.68e-07 $l=1.5e-07 $layer=LI1_cond $X=3.81 $Y=2.905
+ $X2=3.81 $Y2=2.755
r121 36 39 6.81649 $w=1.7e-07 $l=1.20208e-07 $layer=LI1_cond $X=3.725 $Y=2.99
+ $X2=3.81 $Y2=2.905
r122 36 37 136.027 $w=1.68e-07 $l=2.085e-06 $layer=LI1_cond $X=3.725 $Y=2.99
+ $X2=1.64 $Y2=2.99
r123 32 42 3.70735 $w=2.5e-07 $l=2.3e-07 $layer=LI1_cond $X=1.54 $Y=1.92
+ $X2=1.31 $Y2=1.92
r124 32 34 49.2567 $w=1.68e-07 $l=7.55e-07 $layer=LI1_cond $X=1.54 $Y=1.92
+ $X2=1.54 $Y2=1.165
r125 29 37 7.76618 $w=1.7e-07 $l=2.03101e-07 $layer=LI1_cond $X=1.475 $Y=2.905
+ $X2=1.64 $Y2=2.99
r126 29 31 23.2235 $w=3.28e-07 $l=6.65e-07 $layer=LI1_cond $X=1.475 $Y=2.905
+ $X2=1.475 $Y2=2.24
r127 28 42 3.70735 $w=2.5e-07 $l=2.38642e-07 $layer=LI1_cond $X=1.475 $Y=2.09
+ $X2=1.31 $Y2=1.92
r128 28 31 5.23838 $w=3.28e-07 $l=1.5e-07 $layer=LI1_cond $X=1.475 $Y=2.09
+ $X2=1.475 $Y2=2.24
r129 26 42 2.76166 $w=1.7e-07 $l=8.5e-08 $layer=LI1_cond $X=1.31 $Y=2.005
+ $X2=1.31 $Y2=1.92
r130 26 27 36.861 $w=1.68e-07 $l=5.65e-07 $layer=LI1_cond $X=1.31 $Y=2.005
+ $X2=0.745 $Y2=2.005
r131 24 54 40.6903 $w=3.3e-07 $l=1.65e-07 $layer=POLY_cond $X=0.58 $Y=1.61
+ $X2=0.58 $Y2=1.775
r132 24 53 46.2115 $w=3.3e-07 $l=1.65e-07 $layer=POLY_cond $X=0.58 $Y=1.61
+ $X2=0.58 $Y2=1.445
r133 23 24 145.28 $w=1.7e-07 $l=1.7e-07 $layer=licon1_POLY $count=1 $X=0.58
+ $Y=1.61 $X2=0.58 $Y2=1.61
r134 21 27 7.68211 $w=1.7e-07 $l=1.9799e-07 $layer=LI1_cond $X=0.585 $Y=1.92
+ $X2=0.745 $Y2=2.005
r135 21 23 11.1643 $w=3.18e-07 $l=3.1e-07 $layer=LI1_cond $X=0.585 $Y=1.92
+ $X2=0.585 $Y2=1.61
r136 19 54 256.548 $w=1.8e-07 $l=6.6e-07 $layer=POLY_cond $X=0.655 $Y=2.435
+ $X2=0.655 $Y2=1.775
r137 15 53 233.309 $w=1.5e-07 $l=4.55e-07 $layer=POLY_cond $X=0.495 $Y=0.99
+ $X2=0.495 $Y2=1.445
r138 4 44 300 $w=1.7e-07 $l=5.25262e-07 $layer=licon1_PDIFF $count=2 $X=3.365
+ $Y=1.895 $X2=3.81 $Y2=2.07
r139 3 31 300 $w=1.7e-07 $l=3.66333e-07 $layer=licon1_PDIFF $count=2 $X=1.34
+ $Y=1.935 $X2=1.475 $Y2=2.24
r140 2 48 182 $w=1.7e-07 $l=6.10635e-07 $layer=licon1_NDIFF $count=1 $X=3.84
+ $Y=0.625 $X2=4.15 $Y2=1.1
r141 1 34 182 $w=1.7e-07 $l=5.60647e-07 $layer=licon1_NDIFF $count=1 $X=1.4
+ $Y=0.67 $X2=1.54 $Y2=1.165
.ends

.subckt PM_SKY130_FD_SC_MS__XOR3_2%A 3 5 7 8 15
c38 3 0 2.41479e-19 $X=1.25 $Y=2.435
r39 14 15 13.1146 $w=3.3e-07 $l=7.5e-08 $layer=POLY_cond $X=1.25 $Y=1.585
+ $X2=1.325 $Y2=1.585
r40 11 14 22.732 $w=3.3e-07 $l=1.3e-07 $layer=POLY_cond $X=1.12 $Y=1.585
+ $X2=1.25 $Y2=1.585
r41 11 12 145.28 $w=1.7e-07 $l=1.7e-07 $layer=licon1_POLY $count=1 $X=1.12
+ $Y=1.585 $X2=1.12 $Y2=1.585
r42 8 12 10.1275 $w=3.28e-07 $l=2.9e-07 $layer=LI1_cond $X=1.12 $Y=1.295
+ $X2=1.12 $Y2=1.585
r43 5 15 21.2229 $w=1.5e-07 $l=1.65e-07 $layer=POLY_cond $X=1.325 $Y=1.42
+ $X2=1.325 $Y2=1.585
r44 5 7 138.173 $w=1.5e-07 $l=4.3e-07 $layer=POLY_cond $X=1.325 $Y=1.42
+ $X2=1.325 $Y2=0.99
r45 1 14 16.9318 $w=1.8e-07 $l=1.65e-07 $layer=POLY_cond $X=1.25 $Y=1.75
+ $X2=1.25 $Y2=1.585
r46 1 3 266.266 $w=1.8e-07 $l=6.85e-07 $layer=POLY_cond $X=1.25 $Y=1.75 $X2=1.25
+ $Y2=2.435
.ends

.subckt PM_SKY130_FD_SC_MS__XOR3_2%A_440_315# 1 2 9 13 15 16 19 21 25 30 32 33
+ 34 37 44 45
c105 45 0 7.8648e-20 $X=3.89 $Y=1.57
c106 9 0 1.73718e-19 $X=2.29 $Y=2.415
r107 50 51 11.4717 $w=2.23e-07 $l=2.1e-07 $layer=LI1_cond $X=4.692 $Y=0.8
+ $X2=4.692 $Y2=1.01
r108 45 53 46.6671 $w=3.65e-07 $l=1.65e-07 $layer=POLY_cond $X=3.872 $Y=1.57
+ $X2=3.872 $Y2=1.405
r109 44 45 145.28 $w=1.7e-07 $l=1.7e-07 $layer=licon1_POLY $count=1 $X=3.89
+ $Y=1.57 $X2=3.89 $Y2=1.57
r110 41 44 3.07318 $w=2.98e-07 $l=8e-08 $layer=LI1_cond $X=3.81 $Y=1.585
+ $X2=3.89 $Y2=1.585
r111 37 39 54.1497 $w=1.68e-07 $l=8.3e-07 $layer=LI1_cond $X=4.665 $Y=1.985
+ $X2=4.665 $Y2=2.815
r112 37 51 63.6096 $w=1.68e-07 $l=9.75e-07 $layer=LI1_cond $X=4.665 $Y=1.985
+ $X2=4.665 $Y2=1.01
r113 33 50 6.14636 $w=2.23e-07 $l=1.2e-07 $layer=LI1_cond $X=4.692 $Y=0.68
+ $X2=4.692 $Y2=0.8
r114 33 34 44.6898 $w=1.68e-07 $l=6.85e-07 $layer=LI1_cond $X=4.58 $Y=0.68
+ $X2=3.895 $Y2=0.68
r115 32 41 4.061 $w=1.7e-07 $l=1.5e-07 $layer=LI1_cond $X=3.81 $Y=1.435 $X2=3.81
+ $Y2=1.585
r116 31 34 6.81649 $w=1.7e-07 $l=1.20208e-07 $layer=LI1_cond $X=3.81 $Y=0.765
+ $X2=3.895 $Y2=0.68
r117 31 32 43.7112 $w=1.68e-07 $l=6.7e-07 $layer=LI1_cond $X=3.81 $Y=0.765
+ $X2=3.81 $Y2=1.435
r118 25 53 235.872 $w=1.5e-07 $l=4.6e-07 $layer=POLY_cond $X=3.765 $Y=0.945
+ $X2=3.765 $Y2=1.405
r119 22 30 23.6879 $w=1.5e-07 $l=9e-08 $layer=POLY_cond $X=3.365 $Y=1.65
+ $X2=3.275 $Y2=1.65
r120 21 45 12.6475 $w=3.65e-07 $l=8e-08 $layer=POLY_cond $X=3.872 $Y=1.65
+ $X2=3.872 $Y2=1.57
r121 21 22 166.649 $w=1.5e-07 $l=3.25e-07 $layer=POLY_cond $X=3.69 $Y=1.65
+ $X2=3.365 $Y2=1.65
r122 17 30 2.7459 $w=1.8e-07 $l=7.5e-08 $layer=POLY_cond $X=3.275 $Y=1.725
+ $X2=3.275 $Y2=1.65
r123 17 19 229.339 $w=1.8e-07 $l=5.9e-07 $layer=POLY_cond $X=3.275 $Y=1.725
+ $X2=3.275 $Y2=2.315
r124 16 29 38.4574 $w=1.5e-07 $l=7.5e-08 $layer=POLY_cond $X=2.58 $Y=1.65
+ $X2=2.505 $Y2=1.65
r125 15 30 23.6879 $w=1.5e-07 $l=9e-08 $layer=POLY_cond $X=3.185 $Y=1.65
+ $X2=3.275 $Y2=1.65
r126 15 16 310.223 $w=1.5e-07 $l=6.05e-07 $layer=POLY_cond $X=3.185 $Y=1.65
+ $X2=2.58 $Y2=1.65
r127 11 29 2.83073 $w=1.5e-07 $l=7.5e-08 $layer=POLY_cond $X=2.505 $Y=1.575
+ $X2=2.505 $Y2=1.65
r128 11 13 297.404 $w=1.5e-07 $l=5.8e-07 $layer=POLY_cond $X=2.505 $Y=1.575
+ $X2=2.505 $Y2=0.995
r129 7 29 110.245 $w=1.5e-07 $l=2.15e-07 $layer=POLY_cond $X=2.29 $Y=1.65
+ $X2=2.505 $Y2=1.65
r130 7 9 268.21 $w=1.8e-07 $l=6.9e-07 $layer=POLY_cond $X=2.29 $Y=1.725 $X2=2.29
+ $Y2=2.415
r131 2 39 400 $w=1.7e-07 $l=1.04499e-06 $layer=licon1_PDIFF $count=1 $X=4.52
+ $Y=1.84 $X2=4.665 $Y2=2.815
r132 2 37 400 $w=1.7e-07 $l=2.05061e-07 $layer=licon1_PDIFF $count=1 $X=4.52
+ $Y=1.84 $X2=4.665 $Y2=1.985
r133 1 50 182 $w=1.7e-07 $l=4.929e-07 $layer=licon1_NDIFF $count=1 $X=4.585
+ $Y=0.37 $X2=4.72 $Y2=0.8
.ends

.subckt PM_SKY130_FD_SC_MS__XOR3_2%B 3 5 6 9 11 12 15 17 21 23 25 26 28 33 35 37
+ 38 39 41 44 47
c128 47 0 2.09006e-20 $X=5.085 $Y=1.385
c129 35 0 1.39206e-19 $X=4.935 $Y=1.22
c130 21 0 1.51563e-19 $X=3.175 $Y=0.885
c131 9 0 1.54943e-19 $X=2.005 $Y=0.885
c132 3 0 8.62767e-20 $X=1.785 $Y=2.515
r133 47 48 145.28 $w=1.7e-07 $l=1.7e-07 $layer=licon1_POLY $count=1 $X=5.085
+ $Y=1.385 $X2=5.085 $Y2=1.385
r134 45 47 26.2292 $w=3.3e-07 $l=1.5e-07 $layer=POLY_cond $X=4.935 $Y=1.385
+ $X2=5.085 $Y2=1.385
r135 43 45 7.86876 $w=3.3e-07 $l=4.5e-08 $layer=POLY_cond $X=4.89 $Y=1.385
+ $X2=4.935 $Y2=1.385
r136 43 44 33.0969 $w=3.3e-07 $l=9e-08 $layer=POLY_cond $X=4.89 $Y=1.385 $X2=4.8
+ $Y2=1.385
r137 41 48 3.14303 $w=3.28e-07 $l=9e-08 $layer=LI1_cond $X=5.085 $Y=1.295
+ $X2=5.085 $Y2=1.385
r138 35 45 21.2229 $w=1.5e-07 $l=1.65e-07 $layer=POLY_cond $X=4.935 $Y=1.22
+ $X2=4.935 $Y2=1.385
r139 35 37 154.24 $w=1.5e-07 $l=4.8e-07 $layer=POLY_cond $X=4.935 $Y=1.22
+ $X2=4.935 $Y2=0.74
r140 31 43 16.9318 $w=1.8e-07 $l=1.65e-07 $layer=POLY_cond $X=4.89 $Y=1.55
+ $X2=4.89 $Y2=1.385
r141 31 33 330.403 $w=1.8e-07 $l=8.5e-07 $layer=POLY_cond $X=4.89 $Y=1.55
+ $X2=4.89 $Y2=2.4
r142 30 40 7.39479 $w=1.5e-07 $l=1.08e-07 $layer=POLY_cond $X=4.51 $Y=1.295
+ $X2=4.402 $Y2=1.295
r143 30 44 148.702 $w=1.5e-07 $l=2.9e-07 $layer=POLY_cond $X=4.51 $Y=1.295
+ $X2=4.8 $Y2=1.295
r144 28 40 21.4953 $w=1.82e-07 $l=9e-08 $layer=POLY_cond $X=4.435 $Y=1.22
+ $X2=4.402 $Y2=1.295
r145 27 28 494.819 $w=1.5e-07 $l=9.65e-07 $layer=POLY_cond $X=4.435 $Y=0.255
+ $X2=4.435 $Y2=1.22
r146 25 40 61.2206 $w=1.82e-07 $l=2.40468e-07 $layer=POLY_cond $X=4.37 $Y=1.52
+ $X2=4.402 $Y2=1.295
r147 25 26 797.351 $w=1.5e-07 $l=1.555e-06 $layer=POLY_cond $X=4.37 $Y=1.52
+ $X2=4.37 $Y2=3.075
r148 24 39 20.4101 $w=1.5e-07 $l=7.5e-08 $layer=POLY_cond $X=3.25 $Y=0.18
+ $X2=3.175 $Y2=0.18
r149 23 27 26.9307 $w=1.5e-07 $l=1.06066e-07 $layer=POLY_cond $X=4.36 $Y=0.18
+ $X2=4.435 $Y2=0.255
r150 23 24 569.17 $w=1.5e-07 $l=1.11e-06 $layer=POLY_cond $X=4.36 $Y=0.18
+ $X2=3.25 $Y2=0.18
r151 19 39 5.30422 $w=1.5e-07 $l=7.5e-08 $layer=POLY_cond $X=3.175 $Y=0.255
+ $X2=3.175 $Y2=0.18
r152 19 21 323.043 $w=1.5e-07 $l=6.3e-07 $layer=POLY_cond $X=3.175 $Y=0.255
+ $X2=3.175 $Y2=0.885
r153 18 38 23.6879 $w=1.5e-07 $l=9e-08 $layer=POLY_cond $X=2.83 $Y=3.15 $X2=2.74
+ $Y2=3.15
r154 17 26 26.9307 $w=1.5e-07 $l=1.06066e-07 $layer=POLY_cond $X=4.295 $Y=3.15
+ $X2=4.37 $Y2=3.075
r155 17 18 751.202 $w=1.5e-07 $l=1.465e-06 $layer=POLY_cond $X=4.295 $Y=3.15
+ $X2=2.83 $Y2=3.15
r156 13 38 2.7459 $w=1.8e-07 $l=7.5e-08 $layer=POLY_cond $X=2.74 $Y=3.075
+ $X2=2.74 $Y2=3.15
r157 13 15 256.548 $w=1.8e-07 $l=6.6e-07 $layer=POLY_cond $X=2.74 $Y=3.075
+ $X2=2.74 $Y2=2.415
r158 11 39 20.4101 $w=1.5e-07 $l=7.5e-08 $layer=POLY_cond $X=3.1 $Y=0.18
+ $X2=3.175 $Y2=0.18
r159 11 12 523.021 $w=1.5e-07 $l=1.02e-06 $layer=POLY_cond $X=3.1 $Y=0.18
+ $X2=2.08 $Y2=0.18
r160 7 12 26.9307 $w=1.5e-07 $l=1.06066e-07 $layer=POLY_cond $X=2.005 $Y=0.255
+ $X2=2.08 $Y2=0.18
r161 7 9 323.043 $w=1.5e-07 $l=6.3e-07 $layer=POLY_cond $X=2.005 $Y=0.255
+ $X2=2.005 $Y2=0.885
r162 5 38 23.6879 $w=1.5e-07 $l=9e-08 $layer=POLY_cond $X=2.65 $Y=3.15 $X2=2.74
+ $Y2=3.15
r163 5 6 397.394 $w=1.5e-07 $l=7.75e-07 $layer=POLY_cond $X=2.65 $Y=3.15
+ $X2=1.875 $Y2=3.15
r164 1 6 27.2212 $w=1.5e-07 $l=1.21861e-07 $layer=POLY_cond $X=1.785 $Y=3.075
+ $X2=1.875 $Y2=3.15
r165 1 3 217.677 $w=1.8e-07 $l=5.6e-07 $layer=POLY_cond $X=1.785 $Y=3.075
+ $X2=1.785 $Y2=2.515
.ends

.subckt PM_SKY130_FD_SC_MS__XOR3_2%A_1162_379# 1 2 7 9 12 15 18 21 22 23 25 27
+ 28 30 33 34
c107 30 0 2.73932e-20 $X=7.86 $Y=0.6
c108 27 0 3.42466e-19 $X=7.72 $Y=2.195
c109 15 0 1.62191e-19 $X=6.155 $Y=1.895
c110 12 0 1.40994e-19 $X=6.155 $Y=0.855
r111 37 40 3.0228 $w=3.03e-07 $l=8e-08 $layer=LI1_cond $X=7.365 $Y=2.347
+ $X2=7.445 $Y2=2.347
r112 34 49 45.2517 $w=3.8e-07 $l=1.65e-07 $layer=POLY_cond $X=6.04 $Y=1.52
+ $X2=6.04 $Y2=1.685
r113 34 48 45.2517 $w=3.8e-07 $l=1.65e-07 $layer=POLY_cond $X=6.04 $Y=1.52
+ $X2=6.04 $Y2=1.355
r114 33 36 8.46218 $w=3.28e-07 $l=1.65e-07 $layer=LI1_cond $X=6.015 $Y=1.52
+ $X2=6.015 $Y2=1.685
r115 33 34 145.28 $w=1.7e-07 $l=1.7e-07 $layer=licon1_POLY $count=1 $X=6.015
+ $Y=1.52 $X2=6.015 $Y2=1.52
r116 28 43 11.7433 $w=1.68e-07 $l=1.8e-07 $layer=LI1_cond $X=7.9 $Y=1.52
+ $X2=7.72 $Y2=1.52
r117 28 30 38.4916 $w=2.48e-07 $l=8.35e-07 $layer=LI1_cond $X=7.9 $Y=1.435
+ $X2=7.9 $Y2=0.6
r118 27 40 10.3909 $w=3.03e-07 $l=2.75e-07 $layer=LI1_cond $X=7.72 $Y=2.347
+ $X2=7.445 $Y2=2.347
r119 26 43 0.716491 $w=1.7e-07 $l=8.5e-08 $layer=LI1_cond $X=7.72 $Y=1.605
+ $X2=7.72 $Y2=1.52
r120 26 27 38.492 $w=1.68e-07 $l=5.9e-07 $layer=LI1_cond $X=7.72 $Y=1.605
+ $X2=7.72 $Y2=2.195
r121 24 37 4.15824 $w=1.7e-07 $l=1.53e-07 $layer=LI1_cond $X=7.365 $Y=2.5
+ $X2=7.365 $Y2=2.347
r122 24 25 26.4225 $w=1.68e-07 $l=4.05e-07 $layer=LI1_cond $X=7.365 $Y=2.5
+ $X2=7.365 $Y2=2.905
r123 22 25 6.81649 $w=1.7e-07 $l=1.20208e-07 $layer=LI1_cond $X=7.28 $Y=2.99
+ $X2=7.365 $Y2=2.905
r124 22 23 71.7647 $w=1.68e-07 $l=1.1e-06 $layer=LI1_cond $X=7.28 $Y=2.99
+ $X2=6.18 $Y2=2.99
r125 21 23 6.81649 $w=1.7e-07 $l=1.20208e-07 $layer=LI1_cond $X=6.095 $Y=2.905
+ $X2=6.18 $Y2=2.99
r126 21 36 79.5936 $w=1.68e-07 $l=1.22e-06 $layer=LI1_cond $X=6.095 $Y=2.905
+ $X2=6.095 $Y2=1.685
r127 15 18 2.83073 $w=1.5e-07 $l=7.5e-08 $layer=POLY_cond $X=6.155 $Y=1.895
+ $X2=6.155 $Y2=1.97
r128 15 49 107.681 $w=1.5e-07 $l=2.1e-07 $layer=POLY_cond $X=6.155 $Y=1.895
+ $X2=6.155 $Y2=1.685
r129 12 48 256.383 $w=1.5e-07 $l=5e-07 $layer=POLY_cond $X=6.155 $Y=0.855
+ $X2=6.155 $Y2=1.355
r130 7 18 130.755 $w=1.5e-07 $l=2.55e-07 $layer=POLY_cond $X=5.9 $Y=1.97
+ $X2=6.155 $Y2=1.97
r131 7 9 132.55 $w=1.8e-07 $l=4.95e-07 $layer=POLY_cond $X=5.9 $Y=2.045 $X2=5.9
+ $Y2=2.54
r132 2 40 600 $w=1.7e-07 $l=5.32588e-07 $layer=licon1_PDIFF $count=1 $X=7.3
+ $Y=1.84 $X2=7.445 $Y2=2.305
r133 1 30 182 $w=1.7e-07 $l=2.73038e-07 $layer=licon1_NDIFF $count=1 $X=7.715
+ $Y=0.39 $X2=7.86 $Y2=0.6
.ends

.subckt PM_SKY130_FD_SC_MS__XOR3_2%C 3 5 7 8 9 11 14 16 17 18 20 21 22
c94 22 0 2.73932e-20 $X=6.96 $Y=1.295
c95 21 0 1.57802e-19 $X=7.66 $Y=1.355
c96 14 0 1.74241e-19 $X=7.75 $Y=2.16
c97 11 0 1.05114e-19 $X=7.735 $Y=1.355
c98 8 0 1.48172e-19 $X=7.66 $Y=1.43
r99 27 28 145.28 $w=1.7e-07 $l=1.7e-07 $layer=licon1_POLY $count=1 $X=6.975
+ $Y=1.52 $X2=6.975 $Y2=1.52
r100 25 27 24.9926 $w=2.7e-07 $l=1.4e-07 $layer=POLY_cond $X=6.835 $Y=1.52
+ $X2=6.975 $Y2=1.52
r101 22 28 10.372 $w=2.48e-07 $l=2.25e-07 $layer=LI1_cond $X=7 $Y=1.295 $X2=7
+ $Y2=1.52
r102 18 20 91.58 $w=1.5e-07 $l=2.85e-07 $layer=POLY_cond $X=8.075 $Y=0.885
+ $X2=8.075 $Y2=0.6
r103 16 18 26.9307 $w=1.5e-07 $l=1.06066e-07 $layer=POLY_cond $X=8 $Y=0.96
+ $X2=8.075 $Y2=0.885
r104 16 17 97.4255 $w=1.5e-07 $l=1.9e-07 $layer=POLY_cond $X=8 $Y=0.96 $X2=7.81
+ $Y2=0.96
r105 12 21 18.8402 $w=1.65e-07 $l=2.81425e-07 $layer=POLY_cond $X=7.75 $Y=1.595
+ $X2=7.66 $Y2=1.355
r106 12 14 219.621 $w=1.8e-07 $l=5.65e-07 $layer=POLY_cond $X=7.75 $Y=1.595
+ $X2=7.75 $Y2=2.16
r107 11 21 18.8402 $w=1.65e-07 $l=7.5e-08 $layer=POLY_cond $X=7.735 $Y=1.355
+ $X2=7.66 $Y2=1.355
r108 10 17 26.9307 $w=1.5e-07 $l=1.06066e-07 $layer=POLY_cond $X=7.735 $Y=1.035
+ $X2=7.81 $Y2=0.96
r109 10 11 164.085 $w=1.5e-07 $l=3.2e-07 $layer=POLY_cond $X=7.735 $Y=1.035
+ $X2=7.735 $Y2=1.355
r110 9 27 38.9026 $w=2.7e-07 $l=2.05122e-07 $layer=POLY_cond $X=7.14 $Y=1.43
+ $X2=6.975 $Y2=1.52
r111 8 21 6.66866 $w=1.5e-07 $l=7.5e-08 $layer=POLY_cond $X=7.66 $Y=1.43
+ $X2=7.66 $Y2=1.355
r112 8 9 266.638 $w=1.5e-07 $l=5.2e-07 $layer=POLY_cond $X=7.66 $Y=1.43 $X2=7.14
+ $Y2=1.43
r113 5 25 16.5046 $w=1.5e-07 $l=1.65e-07 $layer=POLY_cond $X=6.835 $Y=1.355
+ $X2=6.835 $Y2=1.52
r114 5 7 138.173 $w=1.5e-07 $l=4.3e-07 $layer=POLY_cond $X=6.835 $Y=1.355
+ $X2=6.835 $Y2=0.925
r115 1 25 31.2407 $w=2.7e-07 $l=2.43926e-07 $layer=POLY_cond $X=6.66 $Y=1.685
+ $X2=6.835 $Y2=1.52
r116 1 3 332.347 $w=1.8e-07 $l=8.55e-07 $layer=POLY_cond $X=6.66 $Y=1.685
+ $X2=6.66 $Y2=2.54
.ends

.subckt PM_SKY130_FD_SC_MS__XOR3_2%A_1198_424# 1 2 9 13 15 19 23 25 26 27 30 34
+ 37 41 42 45 48 49
c107 49 0 1.49322e-19 $X=8.4 $Y=2.035
c108 37 0 4.37157e-19 $X=8.36 $Y=1.485
c109 25 0 1.94294e-19 $X=8.555 $Y=1.485
r110 48 49 9.3 $w=1.7e-07 $l=1.7e-07 $layer=mcon $count=1 $X=8.4 $Y=2.035
+ $X2=8.4 $Y2=2.035
r111 45 55 18.4391 $w=2.48e-07 $l=4e-07 $layer=LI1_cond $X=6.475 $Y=2.035
+ $X2=6.475 $Y2=2.435
r112 44 45 9.3 $w=1.7e-07 $l=1.7e-07 $layer=mcon $count=1 $X=6.48 $Y=2.035
+ $X2=6.48 $Y2=2.035
r113 42 44 0.115467 $w=2.3e-07 $l=1.45e-07 $layer=MET1_cond $X=6.625 $Y=2.035
+ $X2=6.48 $Y2=2.035
r114 41 48 0.115467 $w=2.3e-07 $l=1.45e-07 $layer=MET1_cond $X=8.255 $Y=2.035
+ $X2=8.4 $Y2=2.035
r115 41 42 2.01732 $w=1.4e-07 $l=1.63e-06 $layer=MET1_cond $X=8.255 $Y=2.035
+ $X2=6.625 $Y2=2.035
r116 40 49 20.3333 $w=2.08e-07 $l=3.85e-07 $layer=LI1_cond $X=8.42 $Y=1.65
+ $X2=8.42 $Y2=2.035
r117 37 40 7.28026 $w=3.28e-07 $l=1.65e-07 $layer=LI1_cond $X=8.36 $Y=1.485
+ $X2=8.36 $Y2=1.65
r118 37 38 145.28 $w=1.7e-07 $l=1.7e-07 $layer=licon1_POLY $count=1 $X=8.36
+ $Y=1.485 $X2=8.36 $Y2=1.485
r119 34 45 23.5098 $w=2.48e-07 $l=5.1e-07 $layer=LI1_cond $X=6.475 $Y=1.525
+ $X2=6.475 $Y2=2.035
r120 33 34 9.02376 $w=2.48e-07 $l=1.7e-07 $layer=LI1_cond $X=6.527 $Y=1.355
+ $X2=6.527 $Y2=1.525
r121 30 33 16.6364 $w=1.68e-07 $l=2.55e-07 $layer=LI1_cond $X=6.62 $Y=1.1
+ $X2=6.62 $Y2=1.355
r122 25 38 34.0979 $w=3.3e-07 $l=1.95e-07 $layer=POLY_cond $X=8.555 $Y=1.485
+ $X2=8.36 $Y2=1.485
r123 25 26 7.86782 $w=3.3e-07 $l=9e-08 $layer=POLY_cond $X=8.555 $Y=1.485
+ $X2=8.645 $Y2=1.485
r124 21 27 18.8402 $w=1.65e-07 $l=7.98436e-08 $layer=POLY_cond $X=9.085 $Y=1.32
+ $X2=9.095 $Y2=1.395
r125 21 23 287.149 $w=1.5e-07 $l=5.6e-07 $layer=POLY_cond $X=9.085 $Y=1.32
+ $X2=9.085 $Y2=0.76
r126 17 27 18.8402 $w=1.65e-07 $l=7.5e-08 $layer=POLY_cond $X=9.095 $Y=1.47
+ $X2=9.095 $Y2=1.395
r127 17 19 361.5 $w=1.8e-07 $l=9.3e-07 $layer=POLY_cond $X=9.095 $Y=1.47
+ $X2=9.095 $Y2=2.4
r128 16 26 7.86782 $w=1.5e-07 $l=1.27279e-07 $layer=POLY_cond $X=8.735 $Y=1.395
+ $X2=8.645 $Y2=1.485
r129 15 27 6.66866 $w=1.5e-07 $l=9e-08 $layer=POLY_cond $X=9.005 $Y=1.395
+ $X2=9.095 $Y2=1.395
r130 15 16 138.447 $w=1.5e-07 $l=2.7e-07 $layer=POLY_cond $X=9.005 $Y=1.395
+ $X2=8.735 $Y2=1.395
r131 11 26 16.8416 $w=1.5e-07 $l=1.69926e-07 $layer=POLY_cond $X=8.655 $Y=1.32
+ $X2=8.645 $Y2=1.485
r132 11 13 287.149 $w=1.5e-07 $l=5.6e-07 $layer=POLY_cond $X=8.655 $Y=1.32
+ $X2=8.655 $Y2=0.76
r133 7 26 16.8416 $w=1.8e-07 $l=1.65e-07 $layer=POLY_cond $X=8.645 $Y=1.65
+ $X2=8.645 $Y2=1.485
r134 7 9 291.532 $w=1.8e-07 $l=7.5e-07 $layer=POLY_cond $X=8.645 $Y=1.65
+ $X2=8.645 $Y2=2.4
r135 2 55 600 $w=1.7e-07 $l=5.8155e-07 $layer=licon1_PDIFF $count=1 $X=5.99
+ $Y=2.12 $X2=6.435 $Y2=2.435
r136 1 30 182 $w=1.7e-07 $l=7.34558e-07 $layer=licon1_NDIFF $count=1 $X=6.23
+ $Y=0.535 $X2=6.62 $Y2=1.1
.ends

.subckt PM_SKY130_FD_SC_MS__XOR3_2%A_27_134# 1 2 3 4 13 14 17 20 21 22 25 28 31
+ 33 34 36 40
r87 37 40 5.07033 $w=4.58e-07 $l=1.95e-07 $layer=LI1_cond $X=2.595 $Y=0.995
+ $X2=2.79 $Y2=0.995
r88 33 34 9.57885 $w=5.08e-07 $l=1.65e-07 $layer=LI1_cond $X=0.34 $Y=2.425
+ $X2=0.34 $Y2=2.26
r89 31 34 64.262 $w=1.68e-07 $l=9.85e-07 $layer=LI1_cond $X=0.17 $Y=1.275
+ $X2=0.17 $Y2=2.26
r90 28 36 3.70735 $w=2.5e-07 $l=1.18427e-07 $layer=LI1_cond $X=2.595 $Y=1.395
+ $X2=2.515 $Y2=1.48
r91 27 37 6.6364 $w=1.7e-07 $l=2.3e-07 $layer=LI1_cond $X=2.595 $Y=1.225
+ $X2=2.595 $Y2=0.995
r92 27 28 11.0909 $w=1.68e-07 $l=1.7e-07 $layer=LI1_cond $X=2.595 $Y=1.225
+ $X2=2.595 $Y2=1.395
r93 23 36 3.70735 $w=2.5e-07 $l=8.5e-08 $layer=LI1_cond $X=2.515 $Y=1.565
+ $X2=2.515 $Y2=1.48
r94 23 25 24.795 $w=3.28e-07 $l=7.1e-07 $layer=LI1_cond $X=2.515 $Y=1.565
+ $X2=2.515 $Y2=2.275
r95 21 36 2.76166 $w=1.7e-07 $l=1.65e-07 $layer=LI1_cond $X=2.35 $Y=1.48
+ $X2=2.515 $Y2=1.48
r96 21 22 25.1176 $w=1.68e-07 $l=3.85e-07 $layer=LI1_cond $X=2.35 $Y=1.48
+ $X2=1.965 $Y2=1.48
r97 20 22 6.81649 $w=1.7e-07 $l=1.20208e-07 $layer=LI1_cond $X=1.88 $Y=1.395
+ $X2=1.965 $Y2=1.48
r98 19 20 36.861 $w=1.68e-07 $l=5.65e-07 $layer=LI1_cond $X=1.88 $Y=0.83
+ $X2=1.88 $Y2=1.395
r99 18 30 5.39736 $w=1.7e-07 $l=1.82483e-07 $layer=LI1_cond $X=0.445 $Y=0.745
+ $X2=0.265 $Y2=0.74
r100 17 19 6.81649 $w=1.7e-07 $l=1.20208e-07 $layer=LI1_cond $X=1.795 $Y=0.745
+ $X2=1.88 $Y2=0.83
r101 17 18 88.0749 $w=1.68e-07 $l=1.35e-06 $layer=LI1_cond $X=1.795 $Y=0.745
+ $X2=0.445 $Y2=0.745
r102 14 31 8.99121 $w=3.58e-07 $l=1.8e-07 $layer=LI1_cond $X=0.265 $Y=1.095
+ $X2=0.265 $Y2=1.275
r103 13 30 2.62574 $w=3.6e-07 $l=9e-08 $layer=LI1_cond $X=0.265 $Y=0.83
+ $X2=0.265 $Y2=0.74
r104 13 14 8.48326 $w=3.58e-07 $l=2.65e-07 $layer=LI1_cond $X=0.265 $Y=0.83
+ $X2=0.265 $Y2=1.095
r105 4 25 600 $w=1.7e-07 $l=2.38118e-07 $layer=licon1_PDIFF $count=1 $X=2.38
+ $Y=2.095 $X2=2.515 $Y2=2.275
r106 3 33 300 $w=1.7e-07 $l=5.57808e-07 $layer=licon1_PDIFF $count=2 $X=0.285
+ $Y=1.935 $X2=0.43 $Y2=2.425
r107 2 40 182 $w=1.7e-07 $l=2.96985e-07 $layer=licon1_NDIFF $count=1 $X=2.58
+ $Y=0.785 $X2=2.79 $Y2=0.995
r108 1 30 91 $w=1.7e-07 $l=2.05061e-07 $layer=licon1_NDIFF $count=2 $X=0.135
+ $Y=0.67 $X2=0.28 $Y2=0.815
.ends

.subckt PM_SKY130_FD_SC_MS__XOR3_2%VPWR 1 2 3 4 15 19 25 28 29 31 36 37 39 41 47
+ 54 62 68 71 75
c99 15 0 8.62767e-20 $X=0.93 $Y=2.425
r100 74 75 9.3 $w=1.7e-07 $l=1.7e-07 $layer=mcon $count=1 $X=9.36 $Y=3.33
+ $X2=9.36 $Y2=3.33
r101 71 72 9.3 $w=1.7e-07 $l=1.7e-07 $layer=mcon $count=1 $X=8.4 $Y=3.33 $X2=8.4
+ $Y2=3.33
r102 68 69 9.3 $w=1.7e-07 $l=1.7e-07 $layer=mcon $count=1 $X=5.04 $Y=3.33
+ $X2=5.04 $Y2=3.33
r103 66 75 0.133793 $w=4.9e-07 $l=4.8e-07 $layer=MET1_cond $X=8.88 $Y=3.33
+ $X2=9.36 $Y2=3.33
r104 66 72 0.133793 $w=4.9e-07 $l=4.8e-07 $layer=MET1_cond $X=8.88 $Y=3.33
+ $X2=8.4 $Y2=3.33
r105 65 66 9.3 $w=1.7e-07 $l=1.7e-07 $layer=mcon $count=1 $X=8.88 $Y=3.33
+ $X2=8.88 $Y2=3.33
r106 63 71 12.0118 $w=1.7e-07 $l=2.78e-07 $layer=LI1_cond $X=8.53 $Y=3.33
+ $X2=8.252 $Y2=3.33
r107 63 65 22.8342 $w=1.68e-07 $l=3.5e-07 $layer=LI1_cond $X=8.53 $Y=3.33
+ $X2=8.88 $Y2=3.33
r108 62 74 4.01252 $w=1.7e-07 $l=1.82e-07 $layer=LI1_cond $X=9.235 $Y=3.33
+ $X2=9.417 $Y2=3.33
r109 62 65 23.1604 $w=1.68e-07 $l=3.55e-07 $layer=LI1_cond $X=9.235 $Y=3.33
+ $X2=8.88 $Y2=3.33
r110 61 72 0.133793 $w=4.9e-07 $l=4.8e-07 $layer=MET1_cond $X=7.92 $Y=3.33
+ $X2=8.4 $Y2=3.33
r111 60 61 3.1 $w=1.7e-07 $l=5.1e-07 $layer=mcon $count=3 $X=7.92 $Y=3.33
+ $X2=7.92 $Y2=3.33
r112 58 61 0.668963 $w=4.9e-07 $l=2.4e-06 $layer=MET1_cond $X=5.52 $Y=3.33
+ $X2=7.92 $Y2=3.33
r113 58 69 0.133793 $w=4.9e-07 $l=4.8e-07 $layer=MET1_cond $X=5.52 $Y=3.33
+ $X2=5.04 $Y2=3.33
r114 57 60 156.578 $w=1.68e-07 $l=2.4e-06 $layer=LI1_cond $X=5.52 $Y=3.33
+ $X2=7.92 $Y2=3.33
r115 57 58 3.1 $w=1.7e-07 $l=5.1e-07 $layer=mcon $count=3 $X=5.52 $Y=3.33
+ $X2=5.52 $Y2=3.33
r116 55 68 7.02821 $w=1.7e-07 $l=1.25e-07 $layer=LI1_cond $X=5.2 $Y=3.33
+ $X2=5.075 $Y2=3.33
r117 55 57 20.877 $w=1.68e-07 $l=3.2e-07 $layer=LI1_cond $X=5.2 $Y=3.33 $X2=5.52
+ $Y2=3.33
r118 54 71 12.0118 $w=1.7e-07 $l=2.77e-07 $layer=LI1_cond $X=7.975 $Y=3.33
+ $X2=8.252 $Y2=3.33
r119 54 60 3.58824 $w=1.68e-07 $l=5.5e-08 $layer=LI1_cond $X=7.975 $Y=3.33
+ $X2=7.92 $Y2=3.33
r120 52 53 2.325 $w=1.7e-07 $l=6.8e-07 $layer=mcon $count=4 $X=4.56 $Y=3.33
+ $X2=4.56 $Y2=3.33
r121 50 53 0.936549 $w=4.9e-07 $l=3.36e-06 $layer=MET1_cond $X=1.2 $Y=3.33
+ $X2=4.56 $Y2=3.33
r122 49 52 219.209 $w=1.68e-07 $l=3.36e-06 $layer=LI1_cond $X=1.2 $Y=3.33
+ $X2=4.56 $Y2=3.33
r123 49 50 2.325 $w=1.7e-07 $l=6.8e-07 $layer=mcon $count=4 $X=1.2 $Y=3.33
+ $X2=1.2 $Y2=3.33
r124 47 68 7.02821 $w=1.7e-07 $l=1.25e-07 $layer=LI1_cond $X=4.95 $Y=3.33
+ $X2=5.075 $Y2=3.33
r125 47 52 25.4438 $w=1.68e-07 $l=3.9e-07 $layer=LI1_cond $X=4.95 $Y=3.33
+ $X2=4.56 $Y2=3.33
r126 45 50 0.133793 $w=4.9e-07 $l=4.8e-07 $layer=MET1_cond $X=0.72 $Y=3.33
+ $X2=1.2 $Y2=3.33
r127 44 45 4.65 $w=1.7e-07 $l=3.4e-07 $layer=mcon $count=2 $X=0.72 $Y=3.33
+ $X2=0.72 $Y2=3.33
r128 41 69 0.0668963 $w=4.9e-07 $l=2.4e-07 $layer=MET1_cond $X=4.8 $Y=3.33
+ $X2=5.04 $Y2=3.33
r129 41 53 0.0668963 $w=4.9e-07 $l=2.4e-07 $layer=MET1_cond $X=4.8 $Y=3.33
+ $X2=4.56 $Y2=3.33
r130 39 40 9.86413 $w=5.53e-07 $l=1.65e-07 $layer=LI1_cond $X=8.252 $Y=2.485
+ $X2=8.252 $Y2=2.32
r131 36 44 2.93583 $w=1.68e-07 $l=4.5e-08 $layer=LI1_cond $X=0.765 $Y=3.33
+ $X2=0.72 $Y2=3.33
r132 36 37 8.61065 $w=1.7e-07 $l=1.65e-07 $layer=LI1_cond $X=0.765 $Y=3.33
+ $X2=0.93 $Y2=3.33
r133 35 49 6.85027 $w=1.68e-07 $l=1.05e-07 $layer=LI1_cond $X=1.095 $Y=3.33
+ $X2=1.2 $Y2=3.33
r134 35 37 8.61065 $w=1.7e-07 $l=1.65e-07 $layer=LI1_cond $X=1.095 $Y=3.33
+ $X2=0.93 $Y2=3.33
r135 31 34 38.2611 $w=2.48e-07 $l=8.3e-07 $layer=LI1_cond $X=9.36 $Y=1.985
+ $X2=9.36 $Y2=2.815
r136 29 74 3.13065 $w=2.5e-07 $l=1.09864e-07 $layer=LI1_cond $X=9.36 $Y=3.245
+ $X2=9.417 $Y2=3.33
r137 29 34 19.822 $w=2.48e-07 $l=4.3e-07 $layer=LI1_cond $X=9.36 $Y=3.245
+ $X2=9.36 $Y2=2.815
r138 28 71 2.33542 $w=5.55e-07 $l=8.5e-08 $layer=LI1_cond $X=8.252 $Y=3.245
+ $X2=8.252 $Y2=3.33
r139 27 39 2.41371 $w=5.53e-07 $l=1.12e-07 $layer=LI1_cond $X=8.252 $Y=2.597
+ $X2=8.252 $Y2=2.485
r140 27 28 13.965 $w=5.53e-07 $l=6.48e-07 $layer=LI1_cond $X=8.252 $Y=2.597
+ $X2=8.252 $Y2=3.245
r141 25 40 21.8556 $w=1.68e-07 $l=3.35e-07 $layer=LI1_cond $X=8.06 $Y=1.985
+ $X2=8.06 $Y2=2.32
r142 19 22 38.2611 $w=2.48e-07 $l=8.3e-07 $layer=LI1_cond $X=5.075 $Y=1.985
+ $X2=5.075 $Y2=2.815
r143 17 68 0.00168595 $w=2.5e-07 $l=8.5e-08 $layer=LI1_cond $X=5.075 $Y=3.245
+ $X2=5.075 $Y2=3.33
r144 17 22 19.822 $w=2.48e-07 $l=4.3e-07 $layer=LI1_cond $X=5.075 $Y=3.245
+ $X2=5.075 $Y2=2.815
r145 13 37 0.89609 $w=3.3e-07 $l=8.5e-08 $layer=LI1_cond $X=0.93 $Y=3.245
+ $X2=0.93 $Y2=3.33
r146 13 15 28.6365 $w=3.28e-07 $l=8.2e-07 $layer=LI1_cond $X=0.93 $Y=3.245
+ $X2=0.93 $Y2=2.425
r147 4 34 400 $w=1.7e-07 $l=1.04031e-06 $layer=licon1_PDIFF $count=1 $X=9.185
+ $Y=1.84 $X2=9.32 $Y2=2.815
r148 4 31 400 $w=1.7e-07 $l=2.01494e-07 $layer=licon1_PDIFF $count=1 $X=9.185
+ $Y=1.84 $X2=9.32 $Y2=1.985
r149 3 39 200 $w=1.7e-07 $l=8.8889e-07 $layer=licon1_PDIFF $count=3 $X=7.84
+ $Y=1.84 $X2=8.42 $Y2=2.485
r150 3 25 300 $w=1.7e-07 $l=2.83373e-07 $layer=licon1_PDIFF $count=2 $X=7.84
+ $Y=1.84 $X2=8.06 $Y2=1.985
r151 2 22 400 $w=1.7e-07 $l=1.04031e-06 $layer=licon1_PDIFF $count=1 $X=4.98
+ $Y=1.84 $X2=5.115 $Y2=2.815
r152 2 19 400 $w=1.7e-07 $l=2.01494e-07 $layer=licon1_PDIFF $count=1 $X=4.98
+ $Y=1.84 $X2=5.115 $Y2=1.985
r153 1 15 300 $w=1.7e-07 $l=5.75109e-07 $layer=licon1_PDIFF $count=2 $X=0.745
+ $Y=1.935 $X2=0.93 $Y2=2.425
.ends

.subckt PM_SKY130_FD_SC_MS__XOR3_2%A_375_419# 1 2 3 4 15 17 18 22 23 24 26 27 28
+ 30 31 32 35 37 38 40 42 47
c145 22 0 7.8648e-20 $X=3.47 $Y=0.71
c146 18 0 1.63464e-19 $X=2.18 $Y=2.65
c147 15 0 3.58437e-19 $X=2.015 $Y=2.24
r148 45 47 9.13369 $w=1.68e-07 $l=1.4e-07 $layer=LI1_cond $X=7.38 $Y=1.18
+ $X2=7.52 $Y2=1.18
r149 42 47 0.716491 $w=1.7e-07 $l=8.5e-08 $layer=LI1_cond $X=7.52 $Y=1.095
+ $X2=7.52 $Y2=1.18
r150 41 42 43.7112 $w=1.68e-07 $l=6.7e-07 $layer=LI1_cond $X=7.52 $Y=0.425
+ $X2=7.52 $Y2=1.095
r151 39 45 0.716491 $w=1.7e-07 $l=8.5e-08 $layer=LI1_cond $X=7.38 $Y=1.265
+ $X2=7.38 $Y2=1.18
r152 39 40 38.492 $w=1.68e-07 $l=5.9e-07 $layer=LI1_cond $X=7.38 $Y=1.265
+ $X2=7.38 $Y2=1.855
r153 37 40 6.81649 $w=1.7e-07 $l=1.20208e-07 $layer=LI1_cond $X=7.295 $Y=1.94
+ $X2=7.38 $Y2=1.855
r154 37 38 15.984 $w=1.68e-07 $l=2.45e-07 $layer=LI1_cond $X=7.295 $Y=1.94
+ $X2=7.05 $Y2=1.94
r155 33 38 7.24806 $w=1.7e-07 $l=1.70276e-07 $layer=LI1_cond $X=6.917 $Y=2.025
+ $X2=7.05 $Y2=1.94
r156 33 35 17.8302 $w=2.63e-07 $l=4.1e-07 $layer=LI1_cond $X=6.917 $Y=2.025
+ $X2=6.917 $Y2=2.435
r157 31 41 6.81649 $w=1.7e-07 $l=1.20208e-07 $layer=LI1_cond $X=7.435 $Y=0.34
+ $X2=7.52 $Y2=0.425
r158 31 32 91.9893 $w=1.68e-07 $l=1.41e-06 $layer=LI1_cond $X=7.435 $Y=0.34
+ $X2=6.025 $Y2=0.34
r159 30 44 2.89128 $w=2.5e-07 $l=8.5e-08 $layer=LI1_cond $X=5.9 $Y=0.675 $X2=5.9
+ $Y2=0.76
r160 29 32 7.14316 $w=1.7e-07 $l=1.62019e-07 $layer=LI1_cond $X=5.9 $Y=0.425
+ $X2=6.025 $Y2=0.34
r161 29 30 11.5244 $w=2.48e-07 $l=2.5e-07 $layer=LI1_cond $X=5.9 $Y=0.425
+ $X2=5.9 $Y2=0.675
r162 27 44 4.25188 $w=1.7e-07 $l=1.25e-07 $layer=LI1_cond $X=5.775 $Y=0.76
+ $X2=5.9 $Y2=0.76
r163 27 28 41.1016 $w=1.68e-07 $l=6.3e-07 $layer=LI1_cond $X=5.775 $Y=0.76
+ $X2=5.145 $Y2=0.76
r164 26 28 6.81649 $w=1.7e-07 $l=1.20208e-07 $layer=LI1_cond $X=5.06 $Y=0.675
+ $X2=5.145 $Y2=0.76
r165 25 26 16.3102 $w=1.68e-07 $l=2.5e-07 $layer=LI1_cond $X=5.06 $Y=0.425
+ $X2=5.06 $Y2=0.675
r166 23 25 6.81649 $w=1.7e-07 $l=1.20208e-07 $layer=LI1_cond $X=4.975 $Y=0.34
+ $X2=5.06 $Y2=0.425
r167 23 24 92.6417 $w=1.68e-07 $l=1.42e-06 $layer=LI1_cond $X=4.975 $Y=0.34
+ $X2=3.555 $Y2=0.34
r168 20 22 121.021 $w=1.68e-07 $l=1.855e-06 $layer=LI1_cond $X=3.47 $Y=2.565
+ $X2=3.47 $Y2=0.71
r169 19 24 6.81649 $w=1.7e-07 $l=1.20208e-07 $layer=LI1_cond $X=3.47 $Y=0.425
+ $X2=3.555 $Y2=0.34
r170 19 22 18.5936 $w=1.68e-07 $l=2.85e-07 $layer=LI1_cond $X=3.47 $Y=0.425
+ $X2=3.47 $Y2=0.71
r171 17 20 6.81649 $w=1.7e-07 $l=1.20208e-07 $layer=LI1_cond $X=3.385 $Y=2.65
+ $X2=3.47 $Y2=2.565
r172 17 18 78.615 $w=1.68e-07 $l=1.205e-06 $layer=LI1_cond $X=3.385 $Y=2.65
+ $X2=2.18 $Y2=2.65
r173 13 18 7.76618 $w=1.7e-07 $l=2.03101e-07 $layer=LI1_cond $X=2.015 $Y=2.565
+ $X2=2.18 $Y2=2.65
r174 13 15 11.3498 $w=3.28e-07 $l=3.25e-07 $layer=LI1_cond $X=2.015 $Y=2.565
+ $X2=2.015 $Y2=2.24
r175 4 35 600 $w=1.7e-07 $l=3.76497e-07 $layer=licon1_PDIFF $count=1 $X=6.75
+ $Y=2.12 $X2=6.885 $Y2=2.435
r176 3 15 300 $w=1.7e-07 $l=2.03286e-07 $layer=licon1_PDIFF $count=2 $X=1.875
+ $Y=2.095 $X2=2.015 $Y2=2.24
r177 2 44 182 $w=1.7e-07 $l=2.01494e-07 $layer=licon1_NDIFF $count=1 $X=5.805
+ $Y=0.535 $X2=5.94 $Y2=0.68
r178 1 22 91 $w=1.7e-07 $l=2.83373e-07 $layer=licon1_NDIFF $count=2 $X=3.25
+ $Y=0.565 $X2=3.47 $Y2=0.71
.ends

.subckt PM_SKY130_FD_SC_MS__XOR3_2%A_416_113# 1 2 3 4 15 17 18 21 27 31 32 34 36
+ 38 39 41 42 45 48 49 52 54
c125 54 0 3.01398e-19 $X=5.622 $Y=1.92
c126 42 0 1.51563e-19 $X=3.265 $Y=2.035
c127 41 0 2.09006e-20 $X=5.375 $Y=2.035
c128 38 0 1.40994e-19 $X=7.075 $Y=0.76
c129 15 0 1.54943e-19 $X=2.22 $Y=0.71
r130 49 54 7.48521 $w=4.33e-07 $l=1.15e-07 $layer=LI1_cond $X=5.622 $Y=2.035
+ $X2=5.622 $Y2=1.92
r131 48 49 9.3 $w=1.7e-07 $l=1.7e-07 $layer=mcon $count=1 $X=5.52 $Y=2.035
+ $X2=5.52 $Y2=2.035
r132 45 52 8.28756 $w=3.28e-07 $l=1.6e-07 $layer=LI1_cond $X=3.05 $Y=2.035
+ $X2=3.05 $Y2=1.875
r133 44 45 9.3 $w=1.7e-07 $l=1.7e-07 $layer=mcon $count=1 $X=3.12 $Y=2.035
+ $X2=3.12 $Y2=2.035
r134 42 44 0.115467 $w=2.3e-07 $l=1.45e-07 $layer=MET1_cond $X=3.265 $Y=2.035
+ $X2=3.12 $Y2=2.035
r135 41 48 0.115467 $w=2.3e-07 $l=1.45e-07 $layer=MET1_cond $X=5.375 $Y=2.035
+ $X2=5.52 $Y2=2.035
r136 41 42 2.61138 $w=1.4e-07 $l=2.11e-06 $layer=MET1_cond $X=5.375 $Y=2.035
+ $X2=3.265 $Y2=2.035
r137 38 39 9.33524 $w=3.28e-07 $l=1.9e-07 $layer=LI1_cond $X=7.075 $Y=0.76
+ $X2=6.885 $Y2=0.76
r138 36 39 33.9251 $w=1.68e-07 $l=5.2e-07 $layer=LI1_cond $X=6.365 $Y=0.68
+ $X2=6.885 $Y2=0.68
r139 33 36 6.81649 $w=1.7e-07 $l=1.20208e-07 $layer=LI1_cond $X=6.28 $Y=0.765
+ $X2=6.365 $Y2=0.68
r140 33 34 16.3102 $w=1.68e-07 $l=2.5e-07 $layer=LI1_cond $X=6.28 $Y=0.765
+ $X2=6.28 $Y2=1.015
r141 31 34 6.81649 $w=1.7e-07 $l=1.20208e-07 $layer=LI1_cond $X=6.195 $Y=1.1
+ $X2=6.28 $Y2=1.015
r142 31 32 33.5989 $w=1.68e-07 $l=5.15e-07 $layer=LI1_cond $X=6.195 $Y=1.1
+ $X2=5.68 $Y2=1.1