* File: sky130_fd_sc_ms__sedfxtp_4.pex.spice
* Created: Wed Sep  2 12:32:51 2020
* Program "Calibre xRC"
* Version "v2018.4_34.26"
* Nominal Temperature: 27C
* Circuit Temperature: 27C
* 
.subckt PM_SKY130_FD_SC_MS__SEDFXTP_4%D 3 7 11 12 17 18 20 22
c39 22 0 2.17154e-19 $X=0.51 $Y=1.99
c40 17 0 1.43045e-19 $X=0.51 $Y=1.145
r41 20 22 40.6903 $w=3.3e-07 $l=1.65e-07 $layer=POLY_cond $X=0.51 $Y=1.825
+ $X2=0.51 $Y2=1.99
r42 20 21 96.8533 $w=1.7e-07 $l=2.55e-07 $layer=licon1_POLY $count=1 $X=0.51
+ $Y=1.825 $X2=0.51 $Y2=1.825
r43 17 20 118.906 $w=3.3e-07 $l=6.8e-07 $layer=POLY_cond $X=0.51 $Y=1.145
+ $X2=0.51 $Y2=1.825
r44 17 18 96.8533 $w=1.7e-07 $l=2.55e-07 $layer=licon1_POLY $count=1 $X=0.51
+ $Y=1.145 $X2=0.51 $Y2=1.145
r45 12 21 4.60977 $w=3.98e-07 $l=1.6e-07 $layer=LI1_cond $X=0.625 $Y=1.665
+ $X2=0.625 $Y2=1.825
r46 11 12 10.6601 $w=3.98e-07 $l=3.7e-07 $layer=LI1_cond $X=0.625 $Y=1.295
+ $X2=0.625 $Y2=1.665
r47 11 18 4.32166 $w=3.98e-07 $l=1.5e-07 $layer=LI1_cond $X=0.625 $Y=1.295
+ $X2=0.625 $Y2=1.145
r48 10 17 46.2115 $w=3.3e-07 $l=1.65e-07 $layer=POLY_cond $X=0.51 $Y=0.98
+ $X2=0.51 $Y2=1.145
r49 7 10 205.106 $w=1.5e-07 $l=4e-07 $layer=POLY_cond $X=0.6 $Y=0.58 $X2=0.6
+ $Y2=0.98
r50 3 22 252.661 $w=1.8e-07 $l=6.5e-07 $layer=POLY_cond $X=0.555 $Y=2.64
+ $X2=0.555 $Y2=1.99
.ends

.subckt PM_SKY130_FD_SC_MS__SEDFXTP_4%A_177_290# 1 2 9 13 16 20 21 22 23 24 25
+ 28 32 34 36 46
c107 34 0 7.47378e-20 $X=2.24 $Y=1.95
c108 25 0 3.15633e-20 $X=1.325 $Y=2.035
c109 23 0 1.43045e-19 $X=1.325 $Y=1.065
c110 21 0 1.82239e-19 $X=1.16 $Y=1.615
r111 37 46 29.7264 $w=3.3e-07 $l=1.7e-07 $layer=POLY_cond $X=2.24 $Y=1.685
+ $X2=2.41 $Y2=1.685
r112 36 37 145.28 $w=1.7e-07 $l=1.7e-07 $layer=licon1_POLY $count=1 $X=2.24
+ $Y=1.685 $X2=2.24 $Y2=1.685
r113 34 39 23.4866 $w=1.68e-07 $l=3.6e-07 $layer=LI1_cond $X=2.24 $Y=2.035
+ $X2=1.88 $Y2=2.035
r114 34 36 12.2159 $w=2.48e-07 $l=2.65e-07 $layer=LI1_cond $X=2.24 $Y=1.95
+ $X2=2.24 $Y2=1.685
r115 30 39 0.716491 $w=1.7e-07 $l=8.5e-08 $layer=LI1_cond $X=1.88 $Y=2.12
+ $X2=1.88 $Y2=2.035
r116 30 32 25.7701 $w=1.68e-07 $l=3.95e-07 $layer=LI1_cond $X=1.88 $Y=2.12
+ $X2=1.88 $Y2=2.515
r117 26 28 9.45003 $w=2.48e-07 $l=2.05e-07 $layer=LI1_cond $X=1.725 $Y=0.98
+ $X2=1.725 $Y2=0.775
r118 24 39 5.54545 $w=1.68e-07 $l=8.5e-08 $layer=LI1_cond $X=1.795 $Y=2.035
+ $X2=1.88 $Y2=2.035
r119 24 25 30.6631 $w=1.68e-07 $l=4.7e-07 $layer=LI1_cond $X=1.795 $Y=2.035
+ $X2=1.325 $Y2=2.035
r120 22 26 7.14316 $w=1.7e-07 $l=1.62019e-07 $layer=LI1_cond $X=1.6 $Y=1.065
+ $X2=1.725 $Y2=0.98
r121 22 23 17.9412 $w=1.68e-07 $l=2.75e-07 $layer=LI1_cond $X=1.6 $Y=1.065
+ $X2=1.325 $Y2=1.065
r122 20 21 72.64 $w=1.7e-07 $l=3.4e-07 $layer=licon1_POLY $count=2 $X=1.16
+ $Y=1.615 $X2=1.16 $Y2=1.615
r123 18 25 7.76618 $w=1.7e-07 $l=2.03101e-07 $layer=LI1_cond $X=1.16 $Y=1.95
+ $X2=1.325 $Y2=2.035
r124 18 20 11.699 $w=3.28e-07 $l=3.35e-07 $layer=LI1_cond $X=1.16 $Y=1.95
+ $X2=1.16 $Y2=1.615
r125 17 23 7.76618 $w=1.7e-07 $l=2.03101e-07 $layer=LI1_cond $X=1.16 $Y=1.15
+ $X2=1.325 $Y2=1.065
r126 17 20 16.239 $w=3.28e-07 $l=4.65e-07 $layer=LI1_cond $X=1.16 $Y=1.15
+ $X2=1.16 $Y2=1.615
r127 15 21 36.0236 $w=4.4e-07 $l=2.85e-07 $layer=POLY_cond $X=1.105 $Y=1.9
+ $X2=1.105 $Y2=1.615
r128 15 16 47.7869 $w=4.4e-07 $l=2.2e-07 $layer=POLY_cond $X=1.105 $Y=1.9
+ $X2=1.105 $Y2=2.12
r129 11 46 21.2229 $w=1.5e-07 $l=1.65e-07 $layer=POLY_cond $X=2.41 $Y=1.52
+ $X2=2.41 $Y2=1.685
r130 11 13 382.011 $w=1.5e-07 $l=7.45e-07 $layer=POLY_cond $X=2.41 $Y=1.52
+ $X2=2.41 $Y2=0.775
r131 9 16 202.129 $w=1.8e-07 $l=5.2e-07 $layer=POLY_cond $X=0.975 $Y=2.64
+ $X2=0.975 $Y2=2.12
r132 2 32 600 $w=1.7e-07 $l=2.62678e-07 $layer=licon1_PDIFF $count=1 $X=1.735
+ $Y=2.315 $X2=1.88 $Y2=2.515
r133 1 28 182 $w=1.7e-07 $l=2.73038e-07 $layer=licon1_NDIFF $count=1 $X=1.62
+ $Y=0.565 $X2=1.765 $Y2=0.775
.ends

.subckt PM_SKY130_FD_SC_MS__SEDFXTP_4%DE 3 5 6 10 11 12 13 15 16 18 19 21 23 24
+ 25 26 29 30 31
c92 31 0 7.47378e-20 $X=1.7 $Y=1.65
c93 30 0 1.36415e-19 $X=1.7 $Y=1.485
r94 29 31 46.2115 $w=3.3e-07 $l=1.65e-07 $layer=POLY_cond $X=1.7 $Y=1.485
+ $X2=1.7 $Y2=1.65
r95 29 30 145.28 $w=1.7e-07 $l=1.7e-07 $layer=licon1_POLY $count=1 $X=1.7
+ $Y=1.485 $X2=1.7 $Y2=1.485
r96 26 30 6.28605 $w=3.28e-07 $l=1.8e-07 $layer=LI1_cond $X=1.7 $Y=1.665 $X2=1.7
+ $Y2=1.485
r97 21 23 105.772 $w=1.8e-07 $l=3.95e-07 $layer=POLY_cond $X=2.785 $Y=2.24
+ $X2=2.785 $Y2=2.635
r98 20 25 23.6879 $w=1.5e-07 $l=9e-08 $layer=POLY_cond $X=2.195 $Y=2.165
+ $X2=2.105 $Y2=2.165
r99 19 21 27.2212 $w=1.5e-07 $l=1.21861e-07 $layer=POLY_cond $X=2.695 $Y=2.165
+ $X2=2.785 $Y2=2.24
r100 19 20 256.383 $w=1.5e-07 $l=5e-07 $layer=POLY_cond $X=2.695 $Y=2.165
+ $X2=2.195 $Y2=2.165
r101 16 25 2.7459 $w=1.8e-07 $l=7.5e-08 $layer=POLY_cond $X=2.105 $Y=2.24
+ $X2=2.105 $Y2=2.165
r102 16 18 105.772 $w=1.8e-07 $l=3.95e-07 $layer=POLY_cond $X=2.105 $Y=2.24
+ $X2=2.105 $Y2=2.635
r103 13 24 13.5877 $w=2.4e-07 $l=2.19317e-07 $layer=POLY_cond $X=1.98 $Y=1.06
+ $X2=1.795 $Y2=1.135
r104 13 15 91.58 $w=1.5e-07 $l=2.85e-07 $layer=POLY_cond $X=1.98 $Y=1.06
+ $X2=1.98 $Y2=0.775
r105 11 25 23.6879 $w=1.5e-07 $l=9e-08 $layer=POLY_cond $X=2.015 $Y=2.165
+ $X2=2.105 $Y2=2.165
r106 11 12 92.2979 $w=1.5e-07 $l=1.8e-07 $layer=POLY_cond $X=2.015 $Y=2.165
+ $X2=1.835 $Y2=2.165
r107 10 12 26.9307 $w=1.5e-07 $l=1.06066e-07 $layer=POLY_cond $X=1.76 $Y=2.09
+ $X2=1.835 $Y2=2.165
r108 10 31 225.617 $w=1.5e-07 $l=4.4e-07 $layer=POLY_cond $X=1.76 $Y=2.09
+ $X2=1.76 $Y2=1.65
r109 7 24 13.5877 $w=2.4e-07 $l=1.27083e-07 $layer=POLY_cond $X=1.7 $Y=1.21
+ $X2=1.795 $Y2=1.135
r110 7 29 48.0869 $w=3.3e-07 $l=2.75e-07 $layer=POLY_cond $X=1.7 $Y=1.21 $X2=1.7
+ $Y2=1.485
r111 5 24 12.1617 $w=1.5e-07 $l=2.6e-07 $layer=POLY_cond $X=1.535 $Y=1.135
+ $X2=1.795 $Y2=1.135
r112 5 6 241 $w=1.5e-07 $l=4.7e-07 $layer=POLY_cond $X=1.535 $Y=1.135 $X2=1.065
+ $Y2=1.135
r113 1 6 26.9307 $w=1.5e-07 $l=1.06066e-07 $layer=POLY_cond $X=0.99 $Y=1.06
+ $X2=1.065 $Y2=1.135
r114 1 3 246.128 $w=1.5e-07 $l=4.8e-07 $layer=POLY_cond $X=0.99 $Y=1.06 $X2=0.99
+ $Y2=0.58
.ends

.subckt PM_SKY130_FD_SC_MS__SEDFXTP_4%A_545_87# 1 2 9 13 15 17 18 19 22 26 30 33
+ 35 38 40 42 45 47 48 49 55 56 62 63 66
c239 66 0 5.64986e-20 $X=13.32 $Y=2.05
c240 55 0 1.04115e-19 $X=14.64 $Y=1.665
c241 48 0 5.67286e-20 $X=14.495 $Y=1.665
c242 13 0 1.92249e-19 $X=3.175 $Y=2.635
r243 61 63 49.8355 $w=3.3e-07 $l=2.85e-07 $layer=POLY_cond $X=2.89 $Y=1.685
+ $X2=3.175 $Y2=1.685
r244 61 62 145.28 $w=1.7e-07 $l=1.7e-07 $layer=licon1_POLY $count=1 $X=2.89
+ $Y=1.685 $X2=2.89 $Y2=1.685
r245 58 61 15.7375 $w=3.3e-07 $l=9e-08 $layer=POLY_cond $X=2.8 $Y=1.685 $X2=2.89
+ $Y2=1.685
r246 55 56 9.3 $w=1.7e-07 $l=1.7e-07 $layer=mcon $count=1 $X=14.64 $Y=1.665
+ $X2=14.64 $Y2=1.665
r247 52 62 8.73063 $w=3.28e-07 $l=2.5e-07 $layer=LI1_cond $X=2.64 $Y=1.685
+ $X2=2.89 $Y2=1.685
r248 51 52 9.3 $w=1.7e-07 $l=1.7e-07 $layer=mcon $count=1 $X=2.64 $Y=1.665
+ $X2=2.64 $Y2=1.665
r249 49 51 0.115467 $w=2.3e-07 $l=1.45e-07 $layer=MET1_cond $X=2.785 $Y=1.665
+ $X2=2.64 $Y2=1.665
r250 48 55 0.115467 $w=2.3e-07 $l=1.45e-07 $layer=MET1_cond $X=14.495 $Y=1.665
+ $X2=14.64 $Y2=1.665
r251 48 49 14.4925 $w=1.4e-07 $l=1.171e-05 $layer=MET1_cond $X=14.495 $Y=1.665
+ $X2=2.785 $Y2=1.665
r252 46 56 12.276 $w=2.28e-07 $l=2.45e-07 $layer=LI1_cond $X=14.395 $Y=1.665
+ $X2=14.64 $Y2=1.665
r253 46 47 0.280307 $w=2.3e-07 $l=8.5e-08 $layer=LI1_cond $X=14.395 $Y=1.665
+ $X2=14.31 $Y2=1.665
r254 42 44 10.5284 $w=3.88e-07 $l=2.3e-07 $layer=LI1_cond $X=14.2 $Y=0.58
+ $X2=14.2 $Y2=0.81
r255 38 67 40.6903 $w=3.3e-07 $l=1.65e-07 $layer=POLY_cond $X=13.32 $Y=2.215
+ $X2=13.32 $Y2=2.38
r256 38 66 46.2115 $w=3.3e-07 $l=1.65e-07 $layer=POLY_cond $X=13.32 $Y=2.215
+ $X2=13.32 $Y2=2.05
r257 37 40 8.74048 $w=2.53e-07 $l=1.65e-07 $layer=LI1_cond $X=13.32 $Y=2.222
+ $X2=13.485 $Y2=2.222
r258 37 38 145.28 $w=1.7e-07 $l=1.7e-07 $layer=licon1_POLY $count=1 $X=13.32
+ $Y=2.215 $X2=13.32 $Y2=2.215
r259 35 45 3.58051 $w=2.6e-07 $l=1.25499e-07 $layer=LI1_cond $X=14.31 $Y=2.18
+ $X2=14.22 $Y2=2.265
r260 34 47 6.59134 $w=1.7e-07 $l=1.15e-07 $layer=LI1_cond $X=14.31 $Y=1.78
+ $X2=14.31 $Y2=1.665
r261 34 35 26.0963 $w=1.68e-07 $l=4e-07 $layer=LI1_cond $X=14.31 $Y=1.78
+ $X2=14.31 $Y2=2.18
r262 33 47 6.59134 $w=1.7e-07 $l=1.15e-07 $layer=LI1_cond $X=14.31 $Y=1.55
+ $X2=14.31 $Y2=1.665
r263 33 44 48.2781 $w=1.68e-07 $l=7.4e-07 $layer=LI1_cond $X=14.31 $Y=1.55
+ $X2=14.31 $Y2=0.81
r264 28 45 3.58051 $w=2.6e-07 $l=8.5e-08 $layer=LI1_cond $X=14.22 $Y=2.35
+ $X2=14.22 $Y2=2.265
r265 28 30 3.7866 $w=3.48e-07 $l=1.15e-07 $layer=LI1_cond $X=14.22 $Y=2.35
+ $X2=14.22 $Y2=2.465
r266 26 45 2.90867 $w=1.7e-07 $l=1.75e-07 $layer=LI1_cond $X=14.045 $Y=2.265
+ $X2=14.22 $Y2=2.265
r267 26 40 36.5348 $w=1.68e-07 $l=5.6e-07 $layer=LI1_cond $X=14.045 $Y=2.265
+ $X2=13.485 $Y2=2.265
r268 24 66 530.713 $w=1.5e-07 $l=1.035e-06 $layer=POLY_cond $X=13.41 $Y=1.015
+ $X2=13.41 $Y2=2.05
r269 22 67 143.823 $w=1.8e-07 $l=3.7e-07 $layer=POLY_cond $X=13.275 $Y=2.75
+ $X2=13.275 $Y2=2.38
r270 18 24 26.9307 $w=1.5e-07 $l=1.06066e-07 $layer=POLY_cond $X=13.335 $Y=0.94
+ $X2=13.41 $Y2=1.015
r271 18 19 233.309 $w=1.5e-07 $l=4.55e-07 $layer=POLY_cond $X=13.335 $Y=0.94
+ $X2=12.88 $Y2=0.94
r272 15 19 26.9307 $w=1.5e-07 $l=1.06066e-07 $layer=POLY_cond $X=12.805 $Y=0.865
+ $X2=12.88 $Y2=0.94
r273 15 17 91.58 $w=1.5e-07 $l=2.85e-07 $layer=POLY_cond $X=12.805 $Y=0.865
+ $X2=12.805 $Y2=0.58
r274 11 63 16.9318 $w=1.8e-07 $l=1.65e-07 $layer=POLY_cond $X=3.175 $Y=1.85
+ $X2=3.175 $Y2=1.685
r275 11 13 305.137 $w=1.8e-07 $l=7.85e-07 $layer=POLY_cond $X=3.175 $Y=1.85
+ $X2=3.175 $Y2=2.635
r276 7 58 21.2229 $w=1.5e-07 $l=1.65e-07 $layer=POLY_cond $X=2.8 $Y=1.52 $X2=2.8
+ $Y2=1.685
r277 7 9 382.011 $w=1.5e-07 $l=7.45e-07 $layer=POLY_cond $X=2.8 $Y=1.52 $X2=2.8
+ $Y2=0.775
r278 2 30 300 $w=1.7e-07 $l=2.01494e-07 $layer=licon1_PDIFF $count=2 $X=14.075
+ $Y=2.32 $X2=14.21 $Y2=2.465
r279 1 42 182 $w=1.7e-07 $l=2.71109e-07 $layer=licon1_NDIFF $count=1 $X=14.03
+ $Y=0.37 $X2=14.17 $Y2=0.58
.ends

.subckt PM_SKY130_FD_SC_MS__SEDFXTP_4%A_631_87# 1 2 7 9 10 11 14 18 20 23 24 29
+ 30 32 33 37 38 43 45 49
r111 46 49 4.60989 $w=4.78e-07 $l=1.85e-07 $layer=LI1_cond $X=4.19 $Y=2.495
+ $X2=4.375 $Y2=2.495
r112 37 38 72.64 $w=1.7e-07 $l=3.4e-07 $layer=licon1_POLY $count=2 $X=5.745
+ $Y=1.58 $X2=5.745 $Y2=1.58
r113 35 37 13.7882 $w=2.78e-07 $l=3.35e-07 $layer=LI1_cond $X=5.72 $Y=1.915
+ $X2=5.72 $Y2=1.58
r114 34 45 2.36881 $w=1.7e-07 $l=1.4e-07 $layer=LI1_cond $X=4.275 $Y=2 $X2=4.135
+ $Y2=2
r115 33 35 7.36005 $w=1.7e-07 $l=1.77482e-07 $layer=LI1_cond $X=5.58 $Y=2
+ $X2=5.72 $Y2=1.915
r116 33 34 85.139 $w=1.68e-07 $l=1.305e-06 $layer=LI1_cond $X=5.58 $Y=2
+ $X2=4.275 $Y2=2
r117 32 46 6.90116 $w=1.7e-07 $l=2.4e-07 $layer=LI1_cond $X=4.19 $Y=2.255
+ $X2=4.19 $Y2=2.495
r118 31 45 4.06715 $w=2.25e-07 $l=1.09087e-07 $layer=LI1_cond $X=4.19 $Y=2.085
+ $X2=4.135 $Y2=2
r119 31 32 11.0909 $w=1.68e-07 $l=1.7e-07 $layer=LI1_cond $X=4.19 $Y=2.085
+ $X2=4.19 $Y2=2.255
r120 29 30 58.112 $w=1.7e-07 $l=4.25e-07 $layer=licon1_POLY $count=2 $X=4.08
+ $Y=1.78 $X2=4.08 $Y2=1.78
r121 27 45 4.06715 $w=2.25e-07 $l=8.5e-08 $layer=LI1_cond $X=4.135 $Y=1.915
+ $X2=4.135 $Y2=2
r122 27 29 5.55642 $w=2.78e-07 $l=1.35e-07 $layer=LI1_cond $X=4.135 $Y=1.915
+ $X2=4.135 $Y2=1.78
r123 26 29 31.6922 $w=2.78e-07 $l=7.7e-07 $layer=LI1_cond $X=4.135 $Y=1.01
+ $X2=4.135 $Y2=1.78
r124 23 24 58.112 $w=1.7e-07 $l=4.25e-07 $layer=licon1_POLY $count=2 $X=4.08
+ $Y=0.42 $X2=4.08 $Y2=0.42
r125 21 43 10.3862 $w=4.03e-07 $l=3.65e-07 $layer=LI1_cond $X=4.135 $Y=0.807
+ $X2=4.5 $Y2=0.807
r126 21 26 2.89865 $w=2.8e-07 $l=2.03e-07 $layer=LI1_cond $X=4.135 $Y=0.807
+ $X2=4.135 $Y2=1.01
r127 21 23 7.61436 $w=2.78e-07 $l=1.85e-07 $layer=LI1_cond $X=4.135 $Y=0.605
+ $X2=4.135 $Y2=0.42
r128 19 38 59.4528 $w=3.3e-07 $l=3.4e-07 $layer=POLY_cond $X=5.745 $Y=1.92
+ $X2=5.745 $Y2=1.58
r129 19 20 40.6903 $w=3.3e-07 $l=1.65e-07 $layer=POLY_cond $X=5.745 $Y=1.92
+ $X2=5.745 $Y2=2.085
r130 17 30 99.6709 $w=3.3e-07 $l=5.7e-07 $layer=POLY_cond $X=4.08 $Y=1.21
+ $X2=4.08 $Y2=1.78
r131 17 18 10.1687 $w=3.3e-07 $l=7.5e-08 $layer=POLY_cond $X=4.08 $Y=1.21
+ $X2=4.08 $Y2=1.135
r132 16 24 111.911 $w=3.3e-07 $l=6.4e-07 $layer=POLY_cond $X=4.08 $Y=1.06
+ $X2=4.08 $Y2=0.42
r133 16 18 10.1687 $w=3.3e-07 $l=7.5e-08 $layer=POLY_cond $X=4.08 $Y=1.06
+ $X2=4.08 $Y2=1.135
r134 14 20 198.242 $w=1.8e-07 $l=5.1e-07 $layer=POLY_cond $X=5.67 $Y=2.595
+ $X2=5.67 $Y2=2.085
r135 10 18 16.9349 $w=1.5e-07 $l=1.65e-07 $layer=POLY_cond $X=3.915 $Y=1.135
+ $X2=4.08 $Y2=1.135
r136 10 11 312.787 $w=1.5e-07 $l=6.1e-07 $layer=POLY_cond $X=3.915 $Y=1.135
+ $X2=3.305 $Y2=1.135
r137 7 11 26.9307 $w=1.5e-07 $l=1.06066e-07 $layer=POLY_cond $X=3.23 $Y=1.06
+ $X2=3.305 $Y2=1.135
r138 7 9 91.58 $w=1.5e-07 $l=2.85e-07 $layer=POLY_cond $X=3.23 $Y=1.06 $X2=3.23
+ $Y2=0.775
r139 2 49 600 $w=1.7e-07 $l=2.77489e-07 $layer=licon1_PDIFF $count=1 $X=4.245
+ $Y=2.275 $X2=4.375 $Y2=2.495
r140 1 43 182 $w=1.7e-07 $l=2.41868e-07 $layer=licon1_NDIFF $count=1 $X=4.355
+ $Y=0.625 $X2=4.5 $Y2=0.805
.ends

.subckt PM_SKY130_FD_SC_MS__SEDFXTP_4%SCD 3 7 9 12
c41 12 0 1.01011e-19 $X=5.205 $Y=1.58
r42 12 15 40.6903 $w=3.3e-07 $l=1.65e-07 $layer=POLY_cond $X=5.205 $Y=1.58
+ $X2=5.205 $Y2=1.745
r43 12 14 46.2115 $w=3.3e-07 $l=1.65e-07 $layer=POLY_cond $X=5.205 $Y=1.58
+ $X2=5.205 $Y2=1.415
r44 12 13 145.28 $w=1.7e-07 $l=1.7e-07 $layer=licon1_POLY $count=1 $X=5.205
+ $Y=1.58 $X2=5.205 $Y2=1.58
r45 9 13 7.91437 $w=4.13e-07 $l=2.85e-07 $layer=LI1_cond $X=5.162 $Y=1.295
+ $X2=5.162 $Y2=1.58
r46 7 15 330.403 $w=1.8e-07 $l=8.5e-07 $layer=POLY_cond $X=5.28 $Y=2.595
+ $X2=5.28 $Y2=1.745
r47 3 14 297.404 $w=1.5e-07 $l=5.8e-07 $layer=POLY_cond $X=5.145 $Y=0.835
+ $X2=5.145 $Y2=1.415
.ends

.subckt PM_SKY130_FD_SC_MS__SEDFXTP_4%SCE 1 3 4 5 9 13 14 15 18 20 23
c79 20 0 1.01011e-19 $X=4.56 $Y=1.295
c80 1 0 1.43862e-19 $X=3.625 $Y=3.03
r81 23 26 40.6969 $w=3.35e-07 $l=1.65e-07 $layer=POLY_cond $X=4.622 $Y=1.345
+ $X2=4.622 $Y2=1.51
r82 23 25 46.255 $w=3.35e-07 $l=1.65e-07 $layer=POLY_cond $X=4.622 $Y=1.345
+ $X2=4.622 $Y2=1.18
r83 20 23 145.28 $w=1.7e-07 $l=1.7e-07 $layer=licon1_POLY $count=1 $X=4.62
+ $Y=1.345 $X2=4.62 $Y2=1.345
r84 16 18 297.404 $w=1.5e-07 $l=5.8e-07 $layer=POLY_cond $X=5.505 $Y=0.255
+ $X2=5.505 $Y2=0.835
r85 14 16 26.9307 $w=1.5e-07 $l=1.06066e-07 $layer=POLY_cond $X=5.43 $Y=0.18
+ $X2=5.505 $Y2=0.255
r86 14 15 328.17 $w=1.5e-07 $l=6.4e-07 $layer=POLY_cond $X=5.43 $Y=0.18 $X2=4.79
+ $Y2=0.18
r87 13 25 176.904 $w=1.5e-07 $l=3.45e-07 $layer=POLY_cond $X=4.715 $Y=0.835
+ $X2=4.715 $Y2=1.18
r88 10 15 26.9307 $w=1.5e-07 $l=1.06066e-07 $layer=POLY_cond $X=4.715 $Y=0.255
+ $X2=4.79 $Y2=0.18
r89 10 13 297.404 $w=1.5e-07 $l=5.8e-07 $layer=POLY_cond $X=4.715 $Y=0.255
+ $X2=4.715 $Y2=0.835
r90 9 26 421.75 $w=1.8e-07 $l=1.085e-06 $layer=POLY_cond $X=4.6 $Y=2.595 $X2=4.6
+ $Y2=1.51
r91 7 9 169.089 $w=1.8e-07 $l=4.35e-07 $layer=POLY_cond $X=4.6 $Y=3.03 $X2=4.6
+ $Y2=2.595
r92 4 7 27.2212 $w=1.5e-07 $l=1.21861e-07 $layer=POLY_cond $X=4.51 $Y=3.105
+ $X2=4.6 $Y2=3.03
r93 4 5 407.649 $w=1.5e-07 $l=7.95e-07 $layer=POLY_cond $X=4.51 $Y=3.105
+ $X2=3.715 $Y2=3.105
r94 1 5 27.2212 $w=1.5e-07 $l=1.21861e-07 $layer=POLY_cond $X=3.625 $Y=3.03
+ $X2=3.715 $Y2=3.105
r95 1 3 105.772 $w=1.8e-07 $l=3.95e-07 $layer=POLY_cond $X=3.625 $Y=3.03
+ $X2=3.625 $Y2=2.635
.ends

.subckt PM_SKY130_FD_SC_MS__SEDFXTP_4%CLK 3 6 8 11 13
c41 11 0 1.09949e-19 $X=6.58 $Y=1.385
r42 11 14 40.6903 $w=3.3e-07 $l=1.65e-07 $layer=POLY_cond $X=6.58 $Y=1.385
+ $X2=6.58 $Y2=1.55
r43 11 13 46.2115 $w=3.3e-07 $l=1.65e-07 $layer=POLY_cond $X=6.58 $Y=1.385
+ $X2=6.58 $Y2=1.22
r44 11 12 145.28 $w=1.7e-07 $l=1.7e-07 $layer=licon1_POLY $count=1 $X=6.58
+ $Y=1.385 $X2=6.58 $Y2=1.385
r45 8 12 11.8359 $w=3.68e-07 $l=3.8e-07 $layer=LI1_cond $X=6.96 $Y=1.365
+ $X2=6.58 $Y2=1.365
r46 6 14 316.798 $w=1.8e-07 $l=8.15e-07 $layer=POLY_cond $X=6.65 $Y=2.365
+ $X2=6.65 $Y2=1.55
r47 3 13 154.24 $w=1.5e-07 $l=4.8e-07 $layer=POLY_cond $X=6.49 $Y=0.74 $X2=6.49
+ $Y2=1.22
.ends

.subckt PM_SKY130_FD_SC_MS__SEDFXTP_4%A_1510_74# 1 2 9 11 13 16 20 24 26 27 28
+ 33 34 37 38 41 42 43 45 46 47 49 52 53 55 57 58 61 62 65 67 68 72
c223 72 0 2.65373e-20 $X=12.93 $Y=1.42
c224 65 0 1.91272e-19 $X=9.34 $Y=1.09
c225 62 0 6.82068e-20 $X=9.34 $Y=0.945
c226 61 0 1.60056e-19 $X=8.675 $Y=2.17
c227 33 0 1.55586e-19 $X=8.58 $Y=1.82
c228 20 0 1.13084e-19 $X=12.855 $Y=2.75
r229 72 85 40.6903 $w=3.3e-07 $l=1.65e-07 $layer=POLY_cond $X=12.93 $Y=1.42
+ $X2=12.93 $Y2=1.585
r230 71 72 145.28 $w=1.7e-07 $l=1.7e-07 $layer=licon1_POLY $count=1 $X=12.93
+ $Y=1.42 $X2=12.93 $Y2=1.42
r231 68 71 5.06376 $w=3.28e-07 $l=1.45e-07 $layer=LI1_cond $X=12.93 $Y=1.275
+ $X2=12.93 $Y2=1.42
r232 65 76 21.8577 $w=3.3e-07 $l=1.25e-07 $layer=POLY_cond $X=9.34 $Y=1.09
+ $X2=9.215 $Y2=1.09
r233 64 65 145.28 $w=1.7e-07 $l=1.7e-07 $layer=licon1_POLY $count=1 $X=9.34
+ $Y=1.09 $X2=9.34 $Y2=1.09
r234 62 64 5.06376 $w=3.28e-07 $l=1.45e-07 $layer=LI1_cond $X=9.34 $Y=0.945
+ $X2=9.34 $Y2=1.09
r235 60 61 145.28 $w=1.7e-07 $l=1.7e-07 $layer=licon1_POLY $count=1 $X=8.675
+ $Y=2.17 $X2=8.675 $Y2=2.17
r236 58 60 2.70794 $w=4.28e-07 $l=9.5e-08 $layer=LI1_cond $X=8.58 $Y=2.077
+ $X2=8.675 $Y2=2.077
r237 56 67 2.28545 $w=1.7e-07 $l=1.35e-07 $layer=LI1_cond $X=11.955 $Y=1.275
+ $X2=11.82 $Y2=1.275
r238 55 68 4.62375 $w=1.7e-07 $l=1.65e-07 $layer=LI1_cond $X=12.765 $Y=1.275
+ $X2=12.93 $Y2=1.275
r239 55 56 52.8449 $w=1.68e-07 $l=8.1e-07 $layer=LI1_cond $X=12.765 $Y=1.275
+ $X2=11.955 $Y2=1.275
r240 53 81 46.2115 $w=3.3e-07 $l=1.65e-07 $layer=POLY_cond $X=11.85 $Y=1.635
+ $X2=11.85 $Y2=1.47
r241 52 53 145.28 $w=1.7e-07 $l=1.7e-07 $layer=licon1_POLY $count=1 $X=11.85
+ $Y=1.635 $X2=11.85 $Y2=1.635
r242 50 67 4.14756 $w=2.2e-07 $l=8.5e-08 $layer=LI1_cond $X=11.82 $Y=1.36
+ $X2=11.82 $Y2=1.275
r243 50 52 11.7378 $w=2.68e-07 $l=2.75e-07 $layer=LI1_cond $X=11.82 $Y=1.36
+ $X2=11.82 $Y2=1.635
r244 49 67 4.14756 $w=2.2e-07 $l=1.07121e-07 $layer=LI1_cond $X=11.77 $Y=1.19
+ $X2=11.82 $Y2=1.275
r245 48 49 10.4385 $w=1.68e-07 $l=1.6e-07 $layer=LI1_cond $X=11.77 $Y=1.03
+ $X2=11.77 $Y2=1.19
r246 46 48 6.81649 $w=1.7e-07 $l=1.20208e-07 $layer=LI1_cond $X=11.685 $Y=0.945
+ $X2=11.77 $Y2=1.03
r247 46 47 37.5134 $w=1.68e-07 $l=5.75e-07 $layer=LI1_cond $X=11.685 $Y=0.945
+ $X2=11.11 $Y2=0.945
r248 45 47 6.81649 $w=1.7e-07 $l=1.20208e-07 $layer=LI1_cond $X=11.025 $Y=0.86
+ $X2=11.11 $Y2=0.945
r249 44 45 28.3797 $w=1.68e-07 $l=4.35e-07 $layer=LI1_cond $X=11.025 $Y=0.425
+ $X2=11.025 $Y2=0.86
r250 42 44 6.81649 $w=1.7e-07 $l=1.20208e-07 $layer=LI1_cond $X=10.94 $Y=0.34
+ $X2=11.025 $Y2=0.425
r251 42 43 33.2727 $w=1.68e-07 $l=5.1e-07 $layer=LI1_cond $X=10.94 $Y=0.34
+ $X2=10.43 $Y2=0.34
r252 40 43 6.81649 $w=1.7e-07 $l=1.20208e-07 $layer=LI1_cond $X=10.345 $Y=0.425
+ $X2=10.43 $Y2=0.34
r253 40 41 28.3797 $w=1.68e-07 $l=4.35e-07 $layer=LI1_cond $X=10.345 $Y=0.425
+ $X2=10.345 $Y2=0.86
r254 39 62 4.62375 $w=1.7e-07 $l=1.65e-07 $layer=LI1_cond $X=9.505 $Y=0.945
+ $X2=9.34 $Y2=0.945
r255 38 41 6.81649 $w=1.7e-07 $l=1.20208e-07 $layer=LI1_cond $X=10.26 $Y=0.945
+ $X2=10.345 $Y2=0.86
r256 38 39 49.2567 $w=1.68e-07 $l=7.55e-07 $layer=LI1_cond $X=10.26 $Y=0.945
+ $X2=9.505 $Y2=0.945
r257 37 62 2.96841 $w=3.28e-07 $l=8.5e-08 $layer=LI1_cond $X=9.34 $Y=0.86
+ $X2=9.34 $Y2=0.945
r258 36 37 15.1913 $w=3.28e-07 $l=4.35e-07 $layer=LI1_cond $X=9.34 $Y=0.425
+ $X2=9.34 $Y2=0.86
r259 35 57 5.16603 $w=1.7e-07 $l=8.5e-08 $layer=LI1_cond $X=8.665 $Y=0.34
+ $X2=8.58 $Y2=0.34
r260 34 36 7.76618 $w=1.7e-07 $l=2.03101e-07 $layer=LI1_cond $X=9.175 $Y=0.34
+ $X2=9.34 $Y2=0.425
r261 34 35 33.2727 $w=1.68e-07 $l=5.1e-07 $layer=LI1_cond $X=9.175 $Y=0.34
+ $X2=8.665 $Y2=0.34
r262 33 58 6.19161 $w=1.7e-07 $l=2.57e-07 $layer=LI1_cond $X=8.58 $Y=1.82
+ $X2=8.58 $Y2=2.077
r263 32 57 1.34256 $w=1.7e-07 $l=8.5e-08 $layer=LI1_cond $X=8.58 $Y=0.425
+ $X2=8.58 $Y2=0.34
r264 32 33 91.0107 $w=1.68e-07 $l=1.395e-06 $layer=LI1_cond $X=8.58 $Y=0.425
+ $X2=8.58 $Y2=1.82
r265 28 58 2.91725 $w=4.28e-07 $l=1.20208e-07 $layer=LI1_cond $X=8.495 $Y=1.992
+ $X2=8.58 $Y2=2.077
r266 28 30 9.01912 $w=3.43e-07 $l=2.7e-07 $layer=LI1_cond $X=8.495 $Y=1.992
+ $X2=8.225 $Y2=1.992
r267 26 57 5.16603 $w=1.7e-07 $l=8.5e-08 $layer=LI1_cond $X=8.495 $Y=0.34
+ $X2=8.58 $Y2=0.34
r268 26 27 41.754 $w=1.68e-07 $l=6.4e-07 $layer=LI1_cond $X=8.495 $Y=0.34
+ $X2=7.855 $Y2=0.34
r269 22 27 7.14316 $w=1.7e-07 $l=1.62019e-07 $layer=LI1_cond $X=7.73 $Y=0.425
+ $X2=7.855 $Y2=0.34
r270 22 24 4.14879 $w=2.48e-07 $l=9e-08 $layer=LI1_cond $X=7.73 $Y=0.425
+ $X2=7.73 $Y2=0.515
r271 20 85 452.847 $w=1.8e-07 $l=1.165e-06 $layer=POLY_cond $X=12.855 $Y=2.75
+ $X2=12.855 $Y2=1.585
r272 16 81 399.957 $w=1.5e-07 $l=7.8e-07 $layer=POLY_cond $X=11.94 $Y=0.69
+ $X2=11.94 $Y2=1.47
r273 11 76 21.2229 $w=1.5e-07 $l=1.65e-07 $layer=POLY_cond $X=9.215 $Y=0.925
+ $X2=9.215 $Y2=1.09
r274 11 13 102.827 $w=1.5e-07 $l=3.2e-07 $layer=POLY_cond $X=9.215 $Y=0.925
+ $X2=9.215 $Y2=0.605
r275 7 61 55.1124 $w=2.58e-07 $l=3.68375e-07 $layer=POLY_cond $X=8.97 $Y=2.335
+ $X2=8.675 $Y2=2.17
r276 7 9 161.315 $w=1.8e-07 $l=4.15e-07 $layer=POLY_cond $X=8.97 $Y=2.335
+ $X2=8.97 $Y2=2.75
r277 2 30 600 $w=1.7e-07 $l=2.06761e-07 $layer=licon1_PDIFF $count=1 $X=8.09
+ $Y=1.84 $X2=8.225 $Y2=1.99
r278 1 24 91 $w=1.7e-07 $l=2.03286e-07 $layer=licon1_NDIFF $count=2 $X=7.55
+ $Y=0.37 $X2=7.69 $Y2=0.515
.ends

.subckt PM_SKY130_FD_SC_MS__SEDFXTP_4%A_1313_74# 1 2 9 11 13 15 16 20 22 28 32
+ 36 38 39 42 44 48 49 51 52 55 60 61 66 67 69 74
c197 74 0 1.55586e-19 $X=9.435 $Y=2
c198 60 0 1.29864e-19 $X=9.435 $Y=2.165
c199 52 0 1.13084e-19 $X=12.125 $Y=2.475
c200 44 0 1.09949e-19 $X=7.245 $Y=1.975
r201 69 70 32.6217 $w=3.9e-07 $l=7.5e-08 $layer=POLY_cond $X=7.355 $Y=1.69
+ $X2=7.355 $Y2=1.615
r202 67 78 40.6903 $w=3.3e-07 $l=1.65e-07 $layer=POLY_cond $X=12.39 $Y=1.635
+ $X2=12.39 $Y2=1.8
r203 67 77 46.2115 $w=3.3e-07 $l=1.65e-07 $layer=POLY_cond $X=12.39 $Y=1.635
+ $X2=12.39 $Y2=1.47
r204 66 67 145.28 $w=1.7e-07 $l=1.7e-07 $layer=licon1_POLY $count=1 $X=12.39
+ $Y=1.635 $X2=12.39 $Y2=1.635
r205 63 66 9.21954 $w=2.23e-07 $l=1.8e-07 $layer=LI1_cond $X=12.21 $Y=1.642
+ $X2=12.39 $Y2=1.642
r206 61 75 40.6903 $w=3.3e-07 $l=1.65e-07 $layer=POLY_cond $X=9.435 $Y=2.165
+ $X2=9.435 $Y2=2.33
r207 61 74 46.2115 $w=3.3e-07 $l=1.65e-07 $layer=POLY_cond $X=9.435 $Y=2.165
+ $X2=9.435 $Y2=2
r208 60 61 145.28 $w=1.7e-07 $l=1.7e-07 $layer=licon1_POLY $count=1 $X=9.435
+ $Y=2.165 $X2=9.435 $Y2=2.165
r209 58 69 37.0769 $w=3.9e-07 $l=2.6e-07 $layer=POLY_cond $X=7.355 $Y=1.95
+ $X2=7.355 $Y2=1.69
r210 57 58 145.28 $w=1.7e-07 $l=1.7e-07 $layer=licon1_POLY $count=1 $X=7.325
+ $Y=1.95 $X2=7.325 $Y2=1.95
r211 54 63 2.38091 $w=1.7e-07 $l=1.13e-07 $layer=LI1_cond $X=12.21 $Y=1.755
+ $X2=12.21 $Y2=1.642
r212 54 55 41.4278 $w=1.68e-07 $l=6.35e-07 $layer=LI1_cond $X=12.21 $Y=1.755
+ $X2=12.21 $Y2=2.39
r213 53 60 13.4591 $w=2.81e-07 $l=3.89743e-07 $layer=LI1_cond $X=9.7 $Y=2.475
+ $X2=9.52 $Y2=2.165
r214 52 55 6.81649 $w=1.7e-07 $l=1.20208e-07 $layer=LI1_cond $X=12.125 $Y=2.475
+ $X2=12.21 $Y2=2.39
r215 52 53 158.209 $w=1.68e-07 $l=2.425e-06 $layer=LI1_cond $X=12.125 $Y=2.475
+ $X2=9.7 $Y2=2.475
r216 51 57 5.33137 $w=1.7e-07 $l=2.07678e-07 $layer=LI1_cond $X=7.33 $Y=1.785
+ $X2=7.367 $Y2=1.975
r217 50 51 50.5615 $w=1.68e-07 $l=7.75e-07 $layer=LI1_cond $X=7.33 $Y=1.01
+ $X2=7.33 $Y2=1.785
r218 48 50 6.81649 $w=1.7e-07 $l=1.20208e-07 $layer=LI1_cond $X=7.245 $Y=0.925
+ $X2=7.33 $Y2=1.01
r219 48 49 24.4652 $w=1.68e-07 $l=3.75e-07 $layer=LI1_cond $X=7.245 $Y=0.925
+ $X2=6.87 $Y2=0.925
r220 44 57 2.86532 $w=3.8e-07 $l=1.22e-07 $layer=LI1_cond $X=7.245 $Y=1.975
+ $X2=7.367 $Y2=1.975
r221 44 46 11.2212 $w=3.78e-07 $l=3.7e-07 $layer=LI1_cond $X=7.245 $Y=1.975
+ $X2=6.875 $Y2=1.975
r222 40 49 7.76618 $w=1.7e-07 $l=2.03101e-07 $layer=LI1_cond $X=6.705 $Y=0.84
+ $X2=6.87 $Y2=0.925
r223 40 42 11.3498 $w=3.28e-07 $l=3.25e-07 $layer=LI1_cond $X=6.705 $Y=0.84
+ $X2=6.705 $Y2=0.515
r224 36 77 456.362 $w=1.5e-07 $l=8.9e-07 $layer=POLY_cond $X=12.415 $Y=0.58
+ $X2=12.415 $Y2=1.47
r225 32 78 256.548 $w=1.8e-07 $l=6.6e-07 $layer=POLY_cond $X=12.345 $Y=2.46
+ $X2=12.345 $Y2=1.8
r226 28 75 163.258 $w=1.8e-07 $l=4.2e-07 $layer=POLY_cond $X=9.42 $Y=2.75
+ $X2=9.42 $Y2=2.33
r227 24 74 120.5 $w=1.5e-07 $l=2.35e-07 $layer=POLY_cond $X=9.345 $Y=1.765
+ $X2=9.345 $Y2=2
r228 23 39 20.4101 $w=1.5e-07 $l=7.5e-08 $layer=POLY_cond $X=8.78 $Y=1.69
+ $X2=8.705 $Y2=1.69
r229 22 24 26.9307 $w=1.5e-07 $l=1.06066e-07 $layer=POLY_cond $X=9.27 $Y=1.69
+ $X2=9.345 $Y2=1.765
r230 22 23 251.255 $w=1.5e-07 $l=4.9e-07 $layer=POLY_cond $X=9.27 $Y=1.69
+ $X2=8.78 $Y2=1.69
r231 18 39 5.30422 $w=1.5e-07 $l=7.5e-08 $layer=POLY_cond $X=8.705 $Y=1.615
+ $X2=8.705 $Y2=1.69
r232 18 20 471.745 $w=1.5e-07 $l=9.2e-07 $layer=POLY_cond $X=8.705 $Y=1.615
+ $X2=8.705 $Y2=0.695
r233 17 38 23.6879 $w=1.5e-07 $l=9e-08 $layer=POLY_cond $X=8.09 $Y=1.69 $X2=8
+ $Y2=1.69
r234 16 39 20.4101 $w=1.5e-07 $l=7.5e-08 $layer=POLY_cond $X=8.63 $Y=1.69
+ $X2=8.705 $Y2=1.69
r235 16 17 276.894 $w=1.5e-07 $l=5.4e-07 $layer=POLY_cond $X=8.63 $Y=1.69
+ $X2=8.09 $Y2=1.69
r236 13 38 2.7459 $w=1.8e-07 $l=7.5e-08 $layer=POLY_cond $X=8 $Y=1.765 $X2=8
+ $Y2=1.69
r237 13 15 170.039 $w=1.8e-07 $l=6.35e-07 $layer=POLY_cond $X=8 $Y=1.765 $X2=8
+ $Y2=2.4
r238 12 69 25.2441 $w=1.5e-07 $l=1.95e-07 $layer=POLY_cond $X=7.55 $Y=1.69
+ $X2=7.355 $Y2=1.69
r239 11 38 23.6879 $w=1.5e-07 $l=9e-08 $layer=POLY_cond $X=7.91 $Y=1.69 $X2=8
+ $Y2=1.69
r240 11 12 184.596 $w=1.5e-07 $l=3.6e-07 $layer=POLY_cond $X=7.91 $Y=1.69
+ $X2=7.55 $Y2=1.69
r241 9 70 448.67 $w=1.5e-07 $l=8.75e-07 $layer=POLY_cond $X=7.475 $Y=0.74
+ $X2=7.475 $Y2=1.615
r242 2 46 600 $w=1.7e-07 $l=2.27706e-07 $layer=licon1_PDIFF $count=1 $X=6.74
+ $Y=1.805 $X2=6.875 $Y2=1.975
r243 1 42 91 $w=1.7e-07 $l=2.03286e-07 $layer=licon1_NDIFF $count=2 $X=6.565
+ $Y=0.37 $X2=6.705 $Y2=0.515
.ends

.subckt PM_SKY130_FD_SC_MS__SEDFXTP_4%A_1943_53# 1 2 9 13 17 19 21 22 24 30 33
+ 34 36 41 43 50
c106 43 0 1.91272e-19 $X=10.045 $Y=1.302
c107 41 0 6.82068e-20 $X=9.88 $Y=1.315
r108 44 45 7.47431 $w=2.53e-07 $l=1.55e-07 $layer=LI1_cond $X=10.685 $Y=1.365
+ $X2=10.84 $Y2=1.365
r109 41 48 40.6903 $w=3.3e-07 $l=1.65e-07 $layer=POLY_cond $X=9.88 $Y=1.315
+ $X2=9.88 $Y2=1.48
r110 41 47 46.2115 $w=3.3e-07 $l=1.65e-07 $layer=POLY_cond $X=9.88 $Y=1.315
+ $X2=9.88 $Y2=1.15
r111 40 43 9.2829 $w=2.03e-07 $l=1.65e-07 $layer=LI1_cond $X=9.88 $Y=1.302
+ $X2=10.045 $Y2=1.302
r112 40 41 145.28 $w=1.7e-07 $l=1.7e-07 $layer=licon1_POLY $count=1 $X=9.88
+ $Y=1.315 $X2=9.88 $Y2=1.315
r113 37 50 11.1574 $w=3.24e-07 $l=7.5e-08 $layer=POLY_cond $X=11.31 $Y=1.32
+ $X2=11.385 $Y2=1.32
r114 36 37 145.28 $w=1.7e-07 $l=1.7e-07 $layer=licon1_POLY $count=1 $X=11.31
+ $Y=1.365 $X2=11.31 $Y2=1.365
r115 34 45 3.83738 $w=3.3e-07 $l=8.5e-08 $layer=LI1_cond $X=10.925 $Y=1.365
+ $X2=10.84 $Y2=1.365
r116 34 36 13.4452 $w=3.28e-07 $l=3.85e-07 $layer=LI1_cond $X=10.925 $Y=1.365
+ $X2=11.31 $Y2=1.365
r117 32 45 3.06467 $w=1.7e-07 $l=1.65e-07 $layer=LI1_cond $X=10.84 $Y=1.53
+ $X2=10.84 $Y2=1.365
r118 32 33 28.7059 $w=1.68e-07 $l=4.4e-07 $layer=LI1_cond $X=10.84 $Y=1.53
+ $X2=10.84 $Y2=1.97
r119 28 44 3.06467 $w=1.7e-07 $l=1.65e-07 $layer=LI1_cond $X=10.685 $Y=1.2
+ $X2=10.685 $Y2=1.365
r120 28 30 24.4652 $w=1.68e-07 $l=3.75e-07 $layer=LI1_cond $X=10.685 $Y=1.2
+ $X2=10.685 $Y2=0.825
r121 24 33 7.14316 $w=2.5e-07 $l=1.62019e-07 $layer=LI1_cond $X=10.755 $Y=2.095
+ $X2=10.84 $Y2=1.97
r122 24 26 5.30124 $w=2.48e-07 $l=1.15e-07 $layer=LI1_cond $X=10.755 $Y=2.095
+ $X2=10.64 $Y2=2.095
r123 22 44 5.41671 $w=2.53e-07 $l=1.18427e-07 $layer=LI1_cond $X=10.6 $Y=1.285
+ $X2=10.685 $Y2=1.365
r124 22 43 36.2086 $w=1.68e-07 $l=5.55e-07 $layer=LI1_cond $X=10.6 $Y=1.285
+ $X2=10.045 $Y2=1.285
r125 19 50 29.0093 $w=3.24e-07 $l=2.91633e-07 $layer=POLY_cond $X=11.58 $Y=1.11
+ $X2=11.385 $Y2=1.32
r126 19 21 134.96 $w=1.5e-07 $l=4.2e-07 $layer=POLY_cond $X=11.58 $Y=1.11
+ $X2=11.58 $Y2=0.69
r127 15 50 16.5046 $w=1.8e-07 $l=2.1e-07 $layer=POLY_cond $X=11.385 $Y=1.53
+ $X2=11.385 $Y2=1.32
r128 15 17 361.5 $w=1.8e-07 $l=9.3e-07 $layer=POLY_cond $X=11.385 $Y=1.53
+ $X2=11.385 $Y2=2.46
r129 13 48 493.661 $w=1.8e-07 $l=1.27e-06 $layer=POLY_cond $X=9.9 $Y=2.75
+ $X2=9.9 $Y2=1.48
r130 9 47 279.457 $w=1.5e-07 $l=5.45e-07 $layer=POLY_cond $X=9.79 $Y=0.605
+ $X2=9.79 $Y2=1.15
r131 2 26 600 $w=1.7e-07 $l=2.01494e-07 $layer=licon1_PDIFF $count=1 $X=10.505
+ $Y=1.99 $X2=10.64 $Y2=2.135
r132 1 30 182 $w=1.7e-07 $l=4.95076e-07 $layer=licon1_NDIFF $count=1 $X=10.545
+ $Y=0.395 $X2=10.685 $Y2=0.825
.ends

.subckt PM_SKY130_FD_SC_MS__SEDFXTP_4%A_1756_97# 1 2 9 13 17 22 27 28 31 32 33
r93 32 37 40.6903 $w=3.3e-07 $l=1.65e-07 $layer=POLY_cond $X=10.42 $Y=1.655
+ $X2=10.42 $Y2=1.82
r94 32 36 46.2115 $w=3.3e-07 $l=1.65e-07 $layer=POLY_cond $X=10.42 $Y=1.655
+ $X2=10.42 $Y2=1.49
r95 31 33 8.69362 $w=2.58e-07 $l=1.65e-07 $layer=LI1_cond $X=10.42 $Y=1.67
+ $X2=10.255 $Y2=1.67
r96 31 32 145.28 $w=1.7e-07 $l=1.7e-07 $layer=licon1_POLY $count=1 $X=10.42
+ $Y=1.655 $X2=10.42 $Y2=1.655
r97 27 28 10.5918 $w=3.58e-07 $l=2.3e-07 $layer=LI1_cond $X=9.18 $Y=2.75
+ $X2=9.18 $Y2=2.52
r98 23 25 10.7647 $w=1.68e-07 $l=1.65e-07 $layer=LI1_cond $X=8.92 $Y=1.715
+ $X2=9.085 $Y2=1.715
r99 22 25 5.54545 $w=1.68e-07 $l=8.5e-08 $layer=LI1_cond $X=9.17 $Y=1.715
+ $X2=9.085 $Y2=1.715
r100 22 33 70.7861 $w=1.68e-07 $l=1.085e-06 $layer=LI1_cond $X=9.17 $Y=1.715
+ $X2=10.255 $Y2=1.715
r101 19 25 0.716491 $w=1.7e-07 $l=8.5e-08 $layer=LI1_cond $X=9.085 $Y=1.8
+ $X2=9.085 $Y2=1.715
r102 19 28 46.9733 $w=1.68e-07 $l=7.2e-07 $layer=LI1_cond $X=9.085 $Y=1.8
+ $X2=9.085 $Y2=2.52
r103 15 23 0.716491 $w=1.7e-07 $l=8.5e-08 $layer=LI1_cond $X=8.92 $Y=1.63
+ $X2=8.92 $Y2=1.715
r104 15 17 56.7594 $w=1.68e-07 $l=8.7e-07 $layer=LI1_cond $X=8.92 $Y=1.63
+ $X2=8.92 $Y2=0.76
r105 13 36 397.394 $w=1.5e-07 $l=7.75e-07 $layer=POLY_cond $X=10.47 $Y=0.715
+ $X2=10.47 $Y2=1.49
r106 9 37 229.339 $w=1.8e-07 $l=5.9e-07 $layer=POLY_cond $X=10.415 $Y=2.41
+ $X2=10.415 $Y2=1.82
r107 2 27 600 $w=1.7e-07 $l=2.69165e-07 $layer=licon1_PDIFF $count=1 $X=9.06
+ $Y=2.54 $X2=9.195 $Y2=2.75