* File: sky130_fd_sc_ms__sedfxtp_2.pex.spice
* Created: Wed Sep  2 12:32:43 2020
* Program "Calibre xRC"
* Version "v2018.4_34.26"
* Nominal Temperature: 27C
* Circuit Temperature: 27C
* 
.subckt PM_SKY130_FD_SC_MS__SEDFXTP_2%D 3 7 11 12 17 18 20 22
c39 22 0 2.2081e-19 $X=0.525 $Y=1.99
c40 17 0 1.59585e-19 $X=0.525 $Y=1.145
r41 20 22 40.6903 $w=3.3e-07 $l=1.65e-07 $layer=POLY_cond $X=0.525 $Y=1.825
+ $X2=0.525 $Y2=1.99
r42 20 21 96.8533 $w=1.7e-07 $l=2.55e-07 $layer=licon1_POLY $count=1 $X=0.525
+ $Y=1.825 $X2=0.525 $Y2=1.825
r43 17 20 118.906 $w=3.3e-07 $l=6.8e-07 $layer=POLY_cond $X=0.525 $Y=1.145
+ $X2=0.525 $Y2=1.825
r44 17 18 96.8533 $w=1.7e-07 $l=2.55e-07 $layer=licon1_POLY $count=1 $X=0.525
+ $Y=1.145 $X2=0.525 $Y2=1.145
r45 12 21 4.85239 $w=3.78e-07 $l=1.6e-07 $layer=LI1_cond $X=0.615 $Y=1.665
+ $X2=0.615 $Y2=1.825
r46 11 12 11.2212 $w=3.78e-07 $l=3.7e-07 $layer=LI1_cond $X=0.615 $Y=1.295
+ $X2=0.615 $Y2=1.665
r47 11 18 4.54912 $w=3.78e-07 $l=1.5e-07 $layer=LI1_cond $X=0.615 $Y=1.295
+ $X2=0.615 $Y2=1.145
r48 10 17 46.2115 $w=3.3e-07 $l=1.65e-07 $layer=POLY_cond $X=0.525 $Y=0.98
+ $X2=0.525 $Y2=1.145
r49 7 10 205.106 $w=1.5e-07 $l=4e-07 $layer=POLY_cond $X=0.615 $Y=0.58 $X2=0.615
+ $Y2=0.98
r50 3 22 252.661 $w=1.8e-07 $l=6.5e-07 $layer=POLY_cond $X=0.57 $Y=2.64 $X2=0.57
+ $Y2=1.99
.ends

.subckt PM_SKY130_FD_SC_MS__SEDFXTP_2%A_180_290# 1 2 9 13 16 20 21 22 23 24 25
+ 28 32 34 36 46
c106 46 0 1.26127e-19 $X=2.425 $Y=1.685
c107 36 0 7.02076e-20 $X=2.22 $Y=1.685
c108 34 0 7.48038e-20 $X=2.22 $Y=1.95
c109 25 0 3.52195e-20 $X=1.305 $Y=2.035
c110 23 0 1.59585e-19 $X=1.305 $Y=1.065
c111 21 0 1.74672e-19 $X=1.14 $Y=1.615
r112 37 46 35.8466 $w=3.3e-07 $l=2.05e-07 $layer=POLY_cond $X=2.22 $Y=1.685
+ $X2=2.425 $Y2=1.685
r113 36 37 145.28 $w=1.7e-07 $l=1.7e-07 $layer=licon1_POLY $count=1 $X=2.22
+ $Y=1.685 $X2=2.22 $Y2=1.685
r114 34 39 21.2032 $w=1.68e-07 $l=3.25e-07 $layer=LI1_cond $X=2.22 $Y=2.035
+ $X2=1.895 $Y2=2.035
r115 34 36 9.25447 $w=3.28e-07 $l=2.65e-07 $layer=LI1_cond $X=2.22 $Y=1.95
+ $X2=2.22 $Y2=1.685
r116 30 39 0.716491 $w=1.7e-07 $l=8.5e-08 $layer=LI1_cond $X=1.895 $Y=2.12
+ $X2=1.895 $Y2=2.035
r117 30 32 25.7701 $w=1.68e-07 $l=3.95e-07 $layer=LI1_cond $X=1.895 $Y=2.12
+ $X2=1.895 $Y2=2.515
r118 26 28 9.45003 $w=2.48e-07 $l=2.05e-07 $layer=LI1_cond $X=1.74 $Y=0.98
+ $X2=1.74 $Y2=0.775
r119 24 39 5.54545 $w=1.68e-07 $l=8.5e-08 $layer=LI1_cond $X=1.81 $Y=2.035
+ $X2=1.895 $Y2=2.035
r120 24 25 32.9465 $w=1.68e-07 $l=5.05e-07 $layer=LI1_cond $X=1.81 $Y=2.035
+ $X2=1.305 $Y2=2.035
r121 22 26 7.14316 $w=1.7e-07 $l=1.62019e-07 $layer=LI1_cond $X=1.615 $Y=1.065
+ $X2=1.74 $Y2=0.98
r122 22 23 20.2246 $w=1.68e-07 $l=3.1e-07 $layer=LI1_cond $X=1.615 $Y=1.065
+ $X2=1.305 $Y2=1.065
r123 20 21 72.64 $w=1.7e-07 $l=3.4e-07 $layer=licon1_POLY $count=2 $X=1.14
+ $Y=1.615 $X2=1.14 $Y2=1.615
r124 18 25 7.76618 $w=1.7e-07 $l=2.03101e-07 $layer=LI1_cond $X=1.14 $Y=1.95
+ $X2=1.305 $Y2=2.035
r125 18 20 11.699 $w=3.28e-07 $l=3.35e-07 $layer=LI1_cond $X=1.14 $Y=1.95
+ $X2=1.14 $Y2=1.615
r126 17 23 7.76618 $w=1.7e-07 $l=2.03101e-07 $layer=LI1_cond $X=1.14 $Y=1.15
+ $X2=1.305 $Y2=1.065
r127 17 20 16.239 $w=3.28e-07 $l=4.65e-07 $layer=LI1_cond $X=1.14 $Y=1.15
+ $X2=1.14 $Y2=1.615
r128 15 21 41.6085 $w=4.05e-07 $l=3.03e-07 $layer=POLY_cond $X=1.102 $Y=1.918
+ $X2=1.102 $Y2=1.615
r129 15 16 45.1538 $w=4.05e-07 $l=2.02e-07 $layer=POLY_cond $X=1.102 $Y=1.918
+ $X2=1.102 $Y2=2.12
r130 11 46 21.2229 $w=1.5e-07 $l=1.65e-07 $layer=POLY_cond $X=2.425 $Y=1.52
+ $X2=2.425 $Y2=1.685
r131 11 13 382.011 $w=1.5e-07 $l=7.45e-07 $layer=POLY_cond $X=2.425 $Y=1.52
+ $X2=2.425 $Y2=0.775
r132 9 16 202.129 $w=1.8e-07 $l=5.2e-07 $layer=POLY_cond $X=0.99 $Y=2.64
+ $X2=0.99 $Y2=2.12
r133 2 32 600 $w=1.7e-07 $l=2.62678e-07 $layer=licon1_PDIFF $count=1 $X=1.75
+ $Y=2.315 $X2=1.895 $Y2=2.515
r134 1 28 182 $w=1.7e-07 $l=2.73038e-07 $layer=licon1_NDIFF $count=1 $X=1.635
+ $Y=0.565 $X2=1.78 $Y2=0.775
.ends

.subckt PM_SKY130_FD_SC_MS__SEDFXTP_2%DE 3 5 6 10 11 12 13 15 16 18 19 21 23 25
+ 27 28 31 32 33
c92 33 0 7.48038e-20 $X=1.68 $Y=1.65
c93 32 0 1.3237e-19 $X=1.68 $Y=1.485
c94 25 0 7.02076e-20 $X=1.995 $Y=1.135
r95 31 33 46.2115 $w=3.3e-07 $l=1.65e-07 $layer=POLY_cond $X=1.68 $Y=1.485
+ $X2=1.68 $Y2=1.65
r96 31 32 145.28 $w=1.7e-07 $l=1.7e-07 $layer=licon1_POLY $count=1 $X=1.68
+ $Y=1.485 $X2=1.68 $Y2=1.485
r97 28 32 6.28605 $w=3.28e-07 $l=1.8e-07 $layer=LI1_cond $X=1.68 $Y=1.665
+ $X2=1.68 $Y2=1.485
r98 21 23 105.772 $w=1.8e-07 $l=3.95e-07 $layer=POLY_cond $X=2.8 $Y=2.24 $X2=2.8
+ $Y2=2.635
r99 20 27 23.6879 $w=1.5e-07 $l=9e-08 $layer=POLY_cond $X=2.21 $Y=2.165 $X2=2.12
+ $Y2=2.165
r100 19 21 27.2212 $w=1.5e-07 $l=1.21861e-07 $layer=POLY_cond $X=2.71 $Y=2.165
+ $X2=2.8 $Y2=2.24
r101 19 20 256.383 $w=1.5e-07 $l=5e-07 $layer=POLY_cond $X=2.71 $Y=2.165
+ $X2=2.21 $Y2=2.165
r102 16 27 2.7459 $w=1.8e-07 $l=7.5e-08 $layer=POLY_cond $X=2.12 $Y=2.24
+ $X2=2.12 $Y2=2.165
r103 16 18 105.772 $w=1.8e-07 $l=3.95e-07 $layer=POLY_cond $X=2.12 $Y=2.24
+ $X2=2.12 $Y2=2.635
r104 13 25 2.83073 $w=1.5e-07 $l=7.5e-08 $layer=POLY_cond $X=1.995 $Y=1.06
+ $X2=1.995 $Y2=1.135
r105 13 15 91.58 $w=1.5e-07 $l=2.85e-07 $layer=POLY_cond $X=1.995 $Y=1.06
+ $X2=1.995 $Y2=0.775
r106 11 27 23.6879 $w=1.5e-07 $l=9e-08 $layer=POLY_cond $X=2.03 $Y=2.165
+ $X2=2.12 $Y2=2.165
r107 11 12 110.245 $w=1.5e-07 $l=2.15e-07 $layer=POLY_cond $X=2.03 $Y=2.165
+ $X2=1.815 $Y2=2.165
r108 10 12 26.9307 $w=1.5e-07 $l=1.06066e-07 $layer=POLY_cond $X=1.74 $Y=2.09
+ $X2=1.815 $Y2=2.165
r109 10 33 225.617 $w=1.5e-07 $l=4.4e-07 $layer=POLY_cond $X=1.74 $Y=2.09
+ $X2=1.74 $Y2=1.65
r110 7 25 161.521 $w=1.5e-07 $l=3.15e-07 $layer=POLY_cond $X=1.68 $Y=1.135
+ $X2=1.995 $Y2=1.135
r111 7 31 48.0869 $w=3.3e-07 $l=2.75e-07 $layer=POLY_cond $X=1.68 $Y=1.21
+ $X2=1.68 $Y2=1.485
r112 5 7 84.6064 $w=1.5e-07 $l=1.65e-07 $layer=POLY_cond $X=1.515 $Y=1.135
+ $X2=1.68 $Y2=1.135
r113 5 6 223.053 $w=1.5e-07 $l=4.35e-07 $layer=POLY_cond $X=1.515 $Y=1.135
+ $X2=1.08 $Y2=1.135
r114 1 6 26.9307 $w=1.5e-07 $l=1.06066e-07 $layer=POLY_cond $X=1.005 $Y=1.06
+ $X2=1.08 $Y2=1.135
r115 1 3 246.128 $w=1.5e-07 $l=4.8e-07 $layer=POLY_cond $X=1.005 $Y=1.06
+ $X2=1.005 $Y2=0.58
.ends

.subckt PM_SKY130_FD_SC_MS__SEDFXTP_2%A_548_87# 1 2 9 13 15 17 18 19 22 26 30 35
+ 37 39 40 45 47 49 50 51 57 58 64 65 68
c246 68 0 3.76658e-20 $X=13.675 $Y=2.05
c247 50 0 1.56582e-19 $X=14.975 $Y=1.665
c248 49 0 1.70806e-19 $X=14.665 $Y=1.665
c249 39 0 1.30289e-19 $X=13.675 $Y=2.215
c250 13 0 3.18376e-19 $X=3.19 $Y=2.635
r251 63 65 49.8355 $w=3.3e-07 $l=2.85e-07 $layer=POLY_cond $X=2.905 $Y=1.68
+ $X2=3.19 $Y2=1.68
r252 63 64 145.28 $w=1.7e-07 $l=1.7e-07 $layer=licon1_POLY $count=1 $X=2.905
+ $Y=1.68 $X2=2.905 $Y2=1.68
r253 60 63 15.7375 $w=3.3e-07 $l=9e-08 $layer=POLY_cond $X=2.815 $Y=1.68
+ $X2=2.905 $Y2=1.68
r254 57 58 9.3 $w=1.7e-07 $l=1.7e-07 $layer=mcon $count=1 $X=15.12 $Y=1.665
+ $X2=15.12 $Y2=1.665
r255 54 64 9.25447 $w=3.28e-07 $l=2.65e-07 $layer=LI1_cond $X=2.64 $Y=1.68
+ $X2=2.905 $Y2=1.68
r256 53 54 9.3 $w=1.7e-07 $l=1.7e-07 $layer=mcon $count=1 $X=2.64 $Y=1.665
+ $X2=2.64 $Y2=1.665
r257 51 53 0.115467 $w=2.3e-07 $l=1.45e-07 $layer=MET1_cond $X=2.785 $Y=1.665
+ $X2=2.64 $Y2=1.665
r258 50 57 0.115467 $w=2.3e-07 $l=1.45e-07 $layer=MET1_cond $X=14.975 $Y=1.665
+ $X2=15.12 $Y2=1.665
r259 50 51 15.0866 $w=1.4e-07 $l=1.219e-05 $layer=MET1_cond $X=14.975 $Y=1.665
+ $X2=2.785 $Y2=1.665
r260 48 58 18.5393 $w=2.28e-07 $l=3.7e-07 $layer=LI1_cond $X=14.75 $Y=1.665
+ $X2=15.12 $Y2=1.665
r261 48 49 0.280307 $w=2.3e-07 $l=8.5e-08 $layer=LI1_cond $X=14.75 $Y=1.665
+ $X2=14.665 $Y2=1.665
r262 44 45 8.63679 $w=3.28e-07 $l=1.7e-07 $layer=LI1_cond $X=14.532 $Y=1.12
+ $X2=14.532 $Y2=1.29
r263 40 69 40.6903 $w=3.3e-07 $l=1.65e-07 $layer=POLY_cond $X=13.675 $Y=2.215
+ $X2=13.675 $Y2=2.38
r264 40 68 46.2115 $w=3.3e-07 $l=1.65e-07 $layer=POLY_cond $X=13.675 $Y=2.215
+ $X2=13.675 $Y2=2.05
r265 39 42 5.93683 $w=3.28e-07 $l=1.7e-07 $layer=LI1_cond $X=13.675 $Y=2.215
+ $X2=13.675 $Y2=2.385
r266 39 40 145.28 $w=1.7e-07 $l=1.7e-07 $layer=licon1_POLY $count=1 $X=13.675
+ $Y=2.215 $X2=13.675 $Y2=2.215
r267 37 47 3.58051 $w=2.6e-07 $l=1.25499e-07 $layer=LI1_cond $X=14.665 $Y=2.3
+ $X2=14.575 $Y2=2.385
r268 36 49 6.59134 $w=1.7e-07 $l=1.15e-07 $layer=LI1_cond $X=14.665 $Y=1.78
+ $X2=14.665 $Y2=1.665
r269 36 37 33.9251 $w=1.68e-07 $l=5.2e-07 $layer=LI1_cond $X=14.665 $Y=1.78
+ $X2=14.665 $Y2=2.3
r270 35 49 6.59134 $w=1.7e-07 $l=1.15e-07 $layer=LI1_cond $X=14.665 $Y=1.55
+ $X2=14.665 $Y2=1.665
r271 35 45 16.9626 $w=1.68e-07 $l=2.6e-07 $layer=LI1_cond $X=14.665 $Y=1.55
+ $X2=14.665 $Y2=1.29
r272 30 44 18.8582 $w=3.28e-07 $l=5.4e-07 $layer=LI1_cond $X=14.48 $Y=0.58
+ $X2=14.48 $Y2=1.12
r273 27 42 4.62375 $w=1.7e-07 $l=1.65e-07 $layer=LI1_cond $X=13.84 $Y=2.385
+ $X2=13.675 $Y2=2.385
r274 26 47 2.90867 $w=1.7e-07 $l=1.75e-07 $layer=LI1_cond $X=14.4 $Y=2.385
+ $X2=14.575 $Y2=2.385
r275 26 27 36.5348 $w=1.68e-07 $l=5.6e-07 $layer=LI1_cond $X=14.4 $Y=2.385
+ $X2=13.84 $Y2=2.385
r276 24 68 530.713 $w=1.5e-07 $l=1.035e-06 $layer=POLY_cond $X=13.765 $Y=1.015
+ $X2=13.765 $Y2=2.05
r277 22 69 143.823 $w=1.8e-07 $l=3.7e-07 $layer=POLY_cond $X=13.63 $Y=2.75
+ $X2=13.63 $Y2=2.38
r278 18 24 26.9307 $w=1.5e-07 $l=1.06066e-07 $layer=POLY_cond $X=13.69 $Y=0.94
+ $X2=13.765 $Y2=1.015
r279 18 19 233.309 $w=1.5e-07 $l=4.55e-07 $layer=POLY_cond $X=13.69 $Y=0.94
+ $X2=13.235 $Y2=0.94
r280 15 19 26.9307 $w=1.5e-07 $l=1.06066e-07 $layer=POLY_cond $X=13.16 $Y=0.865
+ $X2=13.235 $Y2=0.94
r281 15 17 91.58 $w=1.5e-07 $l=2.85e-07 $layer=POLY_cond $X=13.16 $Y=0.865
+ $X2=13.16 $Y2=0.58
r282 11 65 16.9318 $w=1.8e-07 $l=1.65e-07 $layer=POLY_cond $X=3.19 $Y=1.845
+ $X2=3.19 $Y2=1.68
r283 11 13 307.081 $w=1.8e-07 $l=7.9e-07 $layer=POLY_cond $X=3.19 $Y=1.845
+ $X2=3.19 $Y2=2.635
r284 7 60 21.2229 $w=1.5e-07 $l=1.65e-07 $layer=POLY_cond $X=2.815 $Y=1.515
+ $X2=2.815 $Y2=1.68
r285 7 9 379.447 $w=1.5e-07 $l=7.4e-07 $layer=POLY_cond $X=2.815 $Y=1.515
+ $X2=2.815 $Y2=0.775
r286 2 47 300 $w=1.7e-07 $l=2.01494e-07 $layer=licon1_PDIFF $count=2 $X=14.43
+ $Y=2.32 $X2=14.565 $Y2=2.465
r287 1 30 182 $w=1.7e-07 $l=2.71109e-07 $layer=licon1_NDIFF $count=1 $X=14.34
+ $Y=0.37 $X2=14.48 $Y2=0.58
.ends

.subckt PM_SKY130_FD_SC_MS__SEDFXTP_2%A_663_87# 1 2 7 9 10 11 14 18 20 23 24 29
+ 30 32 33 37 38 43 45 49
c109 43 0 1.05969e-19 $X=4.55 $Y=0.805
r110 46 49 5.10825 $w=4.78e-07 $l=2.05e-07 $layer=LI1_cond $X=4.21 $Y=2.495
+ $X2=4.415 $Y2=2.495
r111 37 38 72.64 $w=1.7e-07 $l=3.4e-07 $layer=licon1_POLY $count=2 $X=5.785
+ $Y=1.58 $X2=5.785 $Y2=1.58
r112 35 37 14.5686 $w=2.63e-07 $l=3.35e-07 $layer=LI1_cond $X=5.752 $Y=1.915
+ $X2=5.752 $Y2=1.58
r113 34 45 2.40986 $w=1.7e-07 $l=1.43e-07 $layer=LI1_cond $X=4.295 $Y=2
+ $X2=4.152 $Y2=2
r114 33 35 7.24806 $w=1.7e-07 $l=1.69245e-07 $layer=LI1_cond $X=5.62 $Y=2
+ $X2=5.752 $Y2=1.915
r115 33 34 86.4438 $w=1.68e-07 $l=1.325e-06 $layer=LI1_cond $X=5.62 $Y=2
+ $X2=4.295 $Y2=2
r116 32 46 6.90116 $w=1.7e-07 $l=2.4e-07 $layer=LI1_cond $X=4.21 $Y=2.255
+ $X2=4.21 $Y2=2.495
r117 31 45 4.02809 $w=2.27e-07 $l=1.1025e-07 $layer=LI1_cond $X=4.21 $Y=2.085
+ $X2=4.152 $Y2=2
r118 31 32 11.0909 $w=1.68e-07 $l=1.7e-07 $layer=LI1_cond $X=4.21 $Y=2.085
+ $X2=4.21 $Y2=2.255
r119 29 30 58.112 $w=1.7e-07 $l=4.25e-07 $layer=licon1_POLY $count=2 $X=4.13
+ $Y=1.78 $X2=4.13 $Y2=1.78
r120 27 45 4.02809 $w=2.27e-07 $l=8.5e-08 $layer=LI1_cond $X=4.152 $Y=1.915
+ $X2=4.152 $Y2=2
r121 27 29 5.45894 $w=2.83e-07 $l=1.35e-07 $layer=LI1_cond $X=4.152 $Y=1.915
+ $X2=4.152 $Y2=1.78
r122 26 29 31.1362 $w=2.83e-07 $l=7.7e-07 $layer=LI1_cond $X=4.152 $Y=1.01
+ $X2=4.152 $Y2=1.78
r123 23 24 58.112 $w=1.7e-07 $l=4.25e-07 $layer=licon1_POLY $count=2 $X=4.13
+ $Y=0.42 $X2=4.13 $Y2=0.42
r124 21 43 11.3252 $w=4.03e-07 $l=3.98e-07 $layer=LI1_cond $X=4.152 $Y=0.807
+ $X2=4.55 $Y2=0.807
r125 21 26 2.81058 $w=2.85e-07 $l=2.03e-07 $layer=LI1_cond $X=4.152 $Y=0.807
+ $X2=4.152 $Y2=1.01
r126 21 23 7.48077 $w=2.83e-07 $l=1.85e-07 $layer=LI1_cond $X=4.152 $Y=0.605
+ $X2=4.152 $Y2=0.42
r127 19 38 59.4528 $w=3.3e-07 $l=3.4e-07 $layer=POLY_cond $X=5.785 $Y=1.92
+ $X2=5.785 $Y2=1.58
r128 19 20 37.308 $w=3.3e-07 $l=1.65e-07 $layer=POLY_cond $X=5.785 $Y=1.92
+ $X2=5.785 $Y2=2.085
r129 17 30 99.6709 $w=3.3e-07 $l=5.7e-07 $layer=POLY_cond $X=4.13 $Y=1.21
+ $X2=4.13 $Y2=1.78
r130 17 18 10.1687 $w=3.3e-07 $l=7.5e-08 $layer=POLY_cond $X=4.13 $Y=1.21
+ $X2=4.13 $Y2=1.135
r131 16 24 111.911 $w=3.3e-07 $l=6.4e-07 $layer=POLY_cond $X=4.13 $Y=1.06
+ $X2=4.13 $Y2=0.42
r132 16 18 10.1687 $w=3.3e-07 $l=7.5e-08 $layer=POLY_cond $X=4.13 $Y=1.06
+ $X2=4.13 $Y2=1.135
r133 14 20 198.242 $w=1.8e-07 $l=5.1e-07 $layer=POLY_cond $X=5.74 $Y=2.595
+ $X2=5.74 $Y2=2.085
r134 10 18 16.9349 $w=1.5e-07 $l=1.65e-07 $layer=POLY_cond $X=3.965 $Y=1.135
+ $X2=4.13 $Y2=1.135
r135 10 11 256.383 $w=1.5e-07 $l=5e-07 $layer=POLY_cond $X=3.965 $Y=1.135
+ $X2=3.465 $Y2=1.135
r136 7 11 26.9307 $w=1.5e-07 $l=1.06066e-07 $layer=POLY_cond $X=3.39 $Y=1.06
+ $X2=3.465 $Y2=1.135
r137 7 9 91.58 $w=1.5e-07 $l=2.85e-07 $layer=POLY_cond $X=3.39 $Y=1.06 $X2=3.39
+ $Y2=0.775
r138 2 49 600 $w=1.7e-07 $l=2.81425e-07 $layer=licon1_PDIFF $count=1 $X=4.275
+ $Y=2.275 $X2=4.415 $Y2=2.495
r139 1 43 182 $w=1.7e-07 $l=2.41868e-07 $layer=licon1_NDIFF $count=1 $X=4.405
+ $Y=0.625 $X2=4.55 $Y2=0.805
.ends

.subckt PM_SKY130_FD_SC_MS__SEDFXTP_2%SCD 3 7 9 12
c39 12 0 8.67074e-20 $X=5.245 $Y=1.58
c40 3 0 3.01793e-19 $X=5.265 $Y=0.835
r41 12 15 40.6903 $w=3.3e-07 $l=1.65e-07 $layer=POLY_cond $X=5.245 $Y=1.58
+ $X2=5.245 $Y2=1.745
r42 12 14 46.2115 $w=3.3e-07 $l=1.65e-07 $layer=POLY_cond $X=5.245 $Y=1.58
+ $X2=5.245 $Y2=1.415
r43 12 13 145.28 $w=1.7e-07 $l=1.7e-07 $layer=licon1_POLY $count=1 $X=5.245
+ $Y=1.58 $X2=5.245 $Y2=1.58
r44 9 13 7.49192 $w=4.53e-07 $l=2.85e-07 $layer=LI1_cond $X=5.182 $Y=1.295
+ $X2=5.182 $Y2=1.58
r45 7 15 330.403 $w=1.8e-07 $l=8.5e-07 $layer=POLY_cond $X=5.32 $Y=2.595
+ $X2=5.32 $Y2=1.745
r46 3 14 297.404 $w=1.5e-07 $l=5.8e-07 $layer=POLY_cond $X=5.265 $Y=0.835
+ $X2=5.265 $Y2=1.415
.ends

.subckt PM_SKY130_FD_SC_MS__SEDFXTP_2%SCE 1 3 4 5 9 13 14 15 18 20 23 24
c76 24 0 2.82531e-19 $X=4.67 $Y=1.345
c77 18 0 1.9935e-19 $X=5.625 $Y=0.835
c78 1 0 1.43862e-19 $X=3.64 $Y=3.03
r79 23 26 40.6969 $w=3.35e-07 $l=1.65e-07 $layer=POLY_cond $X=4.672 $Y=1.345
+ $X2=4.672 $Y2=1.51
r80 23 25 46.255 $w=3.35e-07 $l=1.65e-07 $layer=POLY_cond $X=4.672 $Y=1.345
+ $X2=4.672 $Y2=1.18
r81 23 24 145.28 $w=1.7e-07 $l=1.7e-07 $layer=licon1_POLY $count=1 $X=4.67
+ $Y=1.345 $X2=4.67 $Y2=1.345
r82 20 24 3.84148 $w=3.28e-07 $l=1.1e-07 $layer=LI1_cond $X=4.56 $Y=1.345
+ $X2=4.67 $Y2=1.345
r83 16 18 297.404 $w=1.5e-07 $l=5.8e-07 $layer=POLY_cond $X=5.625 $Y=0.255
+ $X2=5.625 $Y2=0.835
r84 14 16 26.9307 $w=1.5e-07 $l=1.06066e-07 $layer=POLY_cond $X=5.55 $Y=0.18
+ $X2=5.625 $Y2=0.255
r85 14 15 364.064 $w=1.5e-07 $l=7.1e-07 $layer=POLY_cond $X=5.55 $Y=0.18
+ $X2=4.84 $Y2=0.18
r86 13 25 176.904 $w=1.5e-07 $l=3.45e-07 $layer=POLY_cond $X=4.765 $Y=0.835
+ $X2=4.765 $Y2=1.18
r87 10 15 26.9307 $w=1.5e-07 $l=1.06066e-07 $layer=POLY_cond $X=4.765 $Y=0.255
+ $X2=4.84 $Y2=0.18
r88 10 13 297.404 $w=1.5e-07 $l=5.8e-07 $layer=POLY_cond $X=4.765 $Y=0.255
+ $X2=4.765 $Y2=0.835
r89 9 26 421.75 $w=1.8e-07 $l=1.085e-06 $layer=POLY_cond $X=4.64 $Y=2.595
+ $X2=4.64 $Y2=1.51
r90 7 9 169.089 $w=1.8e-07 $l=4.35e-07 $layer=POLY_cond $X=4.64 $Y=3.03 $X2=4.64
+ $Y2=2.595
r91 4 7 27.2212 $w=1.5e-07 $l=1.21861e-07 $layer=POLY_cond $X=4.55 $Y=3.105
+ $X2=4.64 $Y2=3.03
r92 4 5 420.468 $w=1.5e-07 $l=8.2e-07 $layer=POLY_cond $X=4.55 $Y=3.105 $X2=3.73
+ $Y2=3.105
r93 1 5 27.2212 $w=1.5e-07 $l=1.21861e-07 $layer=POLY_cond $X=3.64 $Y=3.03
+ $X2=3.73 $Y2=3.105
r94 1 3 105.772 $w=1.8e-07 $l=3.95e-07 $layer=POLY_cond $X=3.64 $Y=3.03 $X2=3.64
+ $Y2=2.635
.ends

.subckt PM_SKY130_FD_SC_MS__SEDFXTP_2%CLK 1 3 6 8 15
c38 15 0 2.59911e-20 $X=6.755 $Y=1.385
c39 8 0 1.22168e-20 $X=6.48 $Y=1.295
r40 14 15 22.732 $w=3.3e-07 $l=1.3e-07 $layer=POLY_cond $X=6.625 $Y=1.385
+ $X2=6.755 $Y2=1.385
r41 11 14 11.366 $w=3.3e-07 $l=6.5e-08 $layer=POLY_cond $X=6.56 $Y=1.385
+ $X2=6.625 $Y2=1.385
r42 11 12 145.28 $w=1.7e-07 $l=1.7e-07 $layer=licon1_POLY $count=1 $X=6.56
+ $Y=1.385 $X2=6.56 $Y2=1.385
r43 8 12 3.14303 $w=3.28e-07 $l=9e-08 $layer=LI1_cond $X=6.56 $Y=1.295 $X2=6.56
+ $Y2=1.385
r44 4 15 16.9318 $w=1.8e-07 $l=1.65e-07 $layer=POLY_cond $X=6.755 $Y=1.55
+ $X2=6.755 $Y2=1.385
r45 4 6 322.629 $w=1.8e-07 $l=8.3e-07 $layer=POLY_cond $X=6.755 $Y=1.55
+ $X2=6.755 $Y2=2.38
r46 1 14 21.2229 $w=1.5e-07 $l=1.65e-07 $layer=POLY_cond $X=6.625 $Y=1.22
+ $X2=6.625 $Y2=1.385
r47 1 3 154.24 $w=1.5e-07 $l=4.8e-07 $layer=POLY_cond $X=6.625 $Y=1.22 $X2=6.625
+ $Y2=0.74
.ends

.subckt PM_SKY130_FD_SC_MS__SEDFXTP_2%A_1538_74# 1 2 9 11 13 16 20 24 26 27 28
+ 33 34 38 41 42 43 45 46 47 49 52 53 55 57 58 61 62 63 66 68 69 73
c231 73 0 2.65373e-20 $X=13.285 $Y=1.42
c232 61 0 1.50148e-19 $X=8.84 $Y=2.185
c233 53 0 1.80054e-19 $X=12.205 $Y=1.635
c234 33 0 1.39112e-19 $X=8.73 $Y=1.82
c235 20 0 1.46653e-19 $X=13.21 $Y=2.75
r236 73 86 40.6903 $w=3.3e-07 $l=1.65e-07 $layer=POLY_cond $X=13.285 $Y=1.42
+ $X2=13.285 $Y2=1.585
r237 72 73 145.28 $w=1.7e-07 $l=1.7e-07 $layer=licon1_POLY $count=1 $X=13.285
+ $Y=1.42 $X2=13.285 $Y2=1.42
r238 69 72 5.06376 $w=3.28e-07 $l=1.45e-07 $layer=LI1_cond $X=13.285 $Y=1.275
+ $X2=13.285 $Y2=1.42
r239 66 77 35.8466 $w=3.3e-07 $l=2.05e-07 $layer=POLY_cond $X=9.49 $Y=1.18
+ $X2=9.285 $Y2=1.18
r240 65 66 145.28 $w=1.7e-07 $l=1.7e-07 $layer=licon1_POLY $count=1 $X=9.49
+ $Y=1.18 $X2=9.49 $Y2=1.18
r241 62 65 8.55602 $w=3.28e-07 $l=2.45e-07 $layer=LI1_cond $X=9.49 $Y=0.935
+ $X2=9.49 $Y2=1.18
r242 62 63 5.66838 $w=3.28e-07 $l=8.5e-08 $layer=LI1_cond $X=9.49 $Y=0.935
+ $X2=9.49 $Y2=0.85
r243 60 61 145.28 $w=1.7e-07 $l=1.7e-07 $layer=licon1_POLY $count=1 $X=8.84
+ $Y=2.185 $X2=8.84 $Y2=2.185
r244 58 60 3.16509 $w=4.24e-07 $l=1.1e-07 $layer=LI1_cond $X=8.73 $Y=2.085
+ $X2=8.84 $Y2=2.085
r245 56 68 2.76166 $w=1.7e-07 $l=1.65e-07 $layer=LI1_cond $X=12.37 $Y=1.275
+ $X2=12.205 $Y2=1.275
r246 55 69 4.62375 $w=1.7e-07 $l=1.65e-07 $layer=LI1_cond $X=13.12 $Y=1.275
+ $X2=13.285 $Y2=1.275
r247 55 56 48.9305 $w=1.68e-07 $l=7.5e-07 $layer=LI1_cond $X=13.12 $Y=1.275
+ $X2=12.37 $Y2=1.275
r248 53 82 46.2115 $w=3.3e-07 $l=1.65e-07 $layer=POLY_cond $X=12.205 $Y=1.635
+ $X2=12.205 $Y2=1.47
r249 52 53 145.28 $w=1.7e-07 $l=1.7e-07 $layer=licon1_POLY $count=1 $X=12.205
+ $Y=1.635 $X2=12.205 $Y2=1.635
r250 50 68 3.70735 $w=2.5e-07 $l=8.5e-08 $layer=LI1_cond $X=12.205 $Y=1.36
+ $X2=12.205 $Y2=1.275
r251 50 52 9.60369 $w=3.28e-07 $l=2.75e-07 $layer=LI1_cond $X=12.205 $Y=1.36
+ $X2=12.205 $Y2=1.635
r252 49 68 3.70735 $w=2.5e-07 $l=1.18427e-07 $layer=LI1_cond $X=12.125 $Y=1.19
+ $X2=12.205 $Y2=1.275
r253 48 49 11.0909 $w=1.68e-07 $l=1.7e-07 $layer=LI1_cond $X=12.125 $Y=1.02
+ $X2=12.125 $Y2=1.19
r254 46 48 6.81649 $w=1.7e-07 $l=1.20208e-07 $layer=LI1_cond $X=12.04 $Y=0.935
+ $X2=12.125 $Y2=1.02
r255 46 47 37.5134 $w=1.68e-07 $l=5.75e-07 $layer=LI1_cond $X=12.04 $Y=0.935
+ $X2=11.465 $Y2=0.935
r256 45 47 6.81649 $w=1.7e-07 $l=1.20208e-07 $layer=LI1_cond $X=11.38 $Y=0.85
+ $X2=11.465 $Y2=0.935
r257 44 45 27.7273 $w=1.68e-07 $l=4.25e-07 $layer=LI1_cond $X=11.38 $Y=0.425
+ $X2=11.38 $Y2=0.85
r258 42 44 6.81649 $w=1.7e-07 $l=1.20208e-07 $layer=LI1_cond $X=11.295 $Y=0.34
+ $X2=11.38 $Y2=0.425
r259 42 43 38.492 $w=1.68e-07 $l=5.9e-07 $layer=LI1_cond $X=11.295 $Y=0.34
+ $X2=10.705 $Y2=0.34
r260 40 43 6.81649 $w=1.7e-07 $l=1.20208e-07 $layer=LI1_cond $X=10.62 $Y=0.425
+ $X2=10.705 $Y2=0.34
r261 40 41 27.7273 $w=1.68e-07 $l=4.25e-07 $layer=LI1_cond $X=10.62 $Y=0.425
+ $X2=10.62 $Y2=0.85
r262 39 62 4.62375 $w=1.7e-07 $l=1.65e-07 $layer=LI1_cond $X=9.655 $Y=0.935
+ $X2=9.49 $Y2=0.935
r263 38 41 6.81649 $w=1.7e-07 $l=1.20208e-07 $layer=LI1_cond $X=10.535 $Y=0.935
+ $X2=10.62 $Y2=0.85
r264 38 39 57.4118 $w=1.68e-07 $l=8.8e-07 $layer=LI1_cond $X=10.535 $Y=0.935
+ $X2=9.655 $Y2=0.935
r265 36 63 27.7273 $w=1.68e-07 $l=4.25e-07 $layer=LI1_cond $X=9.41 $Y=0.425
+ $X2=9.41 $Y2=0.85
r266 35 57 5.16603 $w=1.7e-07 $l=8.5e-08 $layer=LI1_cond $X=8.815 $Y=0.34
+ $X2=8.73 $Y2=0.34
r267 34 36 6.81649 $w=1.7e-07 $l=1.20208e-07 $layer=LI1_cond $X=9.325 $Y=0.34
+ $X2=9.41 $Y2=0.425
r268 34 35 33.2727 $w=1.68e-07 $l=5.1e-07 $layer=LI1_cond $X=9.325 $Y=0.34
+ $X2=8.815 $Y2=0.34
r269 33 58 6.13403 $w=1.7e-07 $l=2.65e-07 $layer=LI1_cond $X=8.73 $Y=1.82
+ $X2=8.73 $Y2=2.085
r270 32 57 1.34256 $w=1.7e-07 $l=8.5e-08 $layer=LI1_cond $X=8.73 $Y=0.425
+ $X2=8.73 $Y2=0.34
r271 32 33 91.0107 $w=1.68e-07 $l=1.395e-06 $layer=LI1_cond $X=8.73 $Y=0.425
+ $X2=8.73 $Y2=1.82
r272 28 58 2.60462 $w=4.24e-07 $l=1.16619e-07 $layer=LI1_cond $X=8.645 $Y=2.01
+ $X2=8.73 $Y2=2.085
r273 28 30 8.34005 $w=3.78e-07 $l=2.75e-07 $layer=LI1_cond $X=8.645 $Y=2.01
+ $X2=8.37 $Y2=2.01
r274 26 57 5.16603 $w=1.7e-07 $l=8.5e-08 $layer=LI1_cond $X=8.645 $Y=0.34
+ $X2=8.73 $Y2=0.34
r275 26 27 42.4064 $w=1.68e-07 $l=6.5e-07 $layer=LI1_cond $X=8.645 $Y=0.34
+ $X2=7.995 $Y2=0.34
r276 22 27 7.76618 $w=1.7e-07 $l=2.03101e-07 $layer=LI1_cond $X=7.83 $Y=0.425
+ $X2=7.995 $Y2=0.34
r277 22 24 3.14303 $w=3.28e-07 $l=9e-08 $layer=LI1_cond $X=7.83 $Y=0.425
+ $X2=7.83 $Y2=0.515
r278 20 86 452.847 $w=1.8e-07 $l=1.165e-06 $layer=POLY_cond $X=13.21 $Y=2.75
+ $X2=13.21 $Y2=1.585
r279 16 82 399.957 $w=1.5e-07 $l=7.8e-07 $layer=POLY_cond $X=12.295 $Y=0.69
+ $X2=12.295 $Y2=1.47
r280 11 77 21.2229 $w=1.5e-07 $l=1.65e-07 $layer=POLY_cond $X=9.285 $Y=1.015
+ $X2=9.285 $Y2=1.18
r281 11 13 102.827 $w=1.5e-07 $l=3.2e-07 $layer=POLY_cond $X=9.285 $Y=1.015
+ $X2=9.285 $Y2=0.695
r282 7 61 59.7756 $w=2.54e-07 $l=3.88844e-07 $layer=POLY_cond $X=9.155 $Y=2.35
+ $X2=8.84 $Y2=2.185
r283 7 9 155.484 $w=1.8e-07 $l=4e-07 $layer=POLY_cond $X=9.155 $Y=2.35 $X2=9.155
+ $Y2=2.75
r284 2 30 600 $w=1.7e-07 $l=2.27706e-07 $layer=licon1_PDIFF $count=1 $X=8.235
+ $Y=1.84 $X2=8.37 $Y2=2.01
r285 1 24 91 $w=1.7e-07 $l=2.03286e-07 $layer=licon1_NDIFF $count=2 $X=7.69
+ $Y=0.37 $X2=7.83 $Y2=0.515
.ends

.subckt PM_SKY130_FD_SC_MS__SEDFXTP_2%A_1340_74# 1 2 11 13 15 17 18 22 24 30 34
+ 38 40 41 44 47 48 51 52 57 58 61 62 67 68 72
c193 72 0 1.39112e-19 $X=9.68 $Y=2.02
c194 61 0 1.50148e-19 $X=9.69 $Y=2.185
c195 58 0 1.22168e-20 $X=7.45 $Y=1.695
c196 48 0 1.46653e-19 $X=12.56 $Y=2.475
r197 68 76 40.6903 $w=3.3e-07 $l=1.65e-07 $layer=POLY_cond $X=12.745 $Y=1.635
+ $X2=12.745 $Y2=1.8
r198 68 75 46.2115 $w=3.3e-07 $l=1.65e-07 $layer=POLY_cond $X=12.745 $Y=1.635
+ $X2=12.745 $Y2=1.47
r199 67 68 145.28 $w=1.7e-07 $l=1.7e-07 $layer=licon1_POLY $count=1 $X=12.745
+ $Y=1.635 $X2=12.745 $Y2=1.635
r200 64 67 5.12197 $w=2.23e-07 $l=1e-07 $layer=LI1_cond $X=12.645 $Y=1.642
+ $X2=12.745 $Y2=1.642
r201 62 73 40.7727 $w=3.5e-07 $l=1.65e-07 $layer=POLY_cond $X=9.68 $Y=2.185
+ $X2=9.68 $Y2=2.35
r202 62 72 46.4315 $w=3.5e-07 $l=1.65e-07 $layer=POLY_cond $X=9.68 $Y=2.185
+ $X2=9.68 $Y2=2.02
r203 61 62 145.28 $w=1.7e-07 $l=1.7e-07 $layer=licon1_POLY $count=1 $X=9.69
+ $Y=2.185 $X2=9.69 $Y2=2.185
r204 57 58 72.64 $w=1.7e-07 $l=3.4e-07 $layer=licon1_POLY $count=2 $X=7.45
+ $Y=1.695 $X2=7.45 $Y2=1.695
r205 55 57 8.3904 $w=6.68e-07 $l=4.7e-07 $layer=LI1_cond $X=6.98 $Y=1.865
+ $X2=7.45 $Y2=1.865
r206 50 64 2.38091 $w=1.7e-07 $l=1.13e-07 $layer=LI1_cond $X=12.645 $Y=1.755
+ $X2=12.645 $Y2=1.642
r207 50 51 41.4278 $w=1.68e-07 $l=6.35e-07 $layer=LI1_cond $X=12.645 $Y=1.755
+ $X2=12.645 $Y2=2.39
r208 49 61 12.3706 $w=2.86e-07 $l=3.69188e-07 $layer=LI1_cond $X=9.885 $Y=2.475
+ $X2=9.705 $Y2=2.185
r209 48 51 6.81649 $w=1.7e-07 $l=1.20208e-07 $layer=LI1_cond $X=12.56 $Y=2.475
+ $X2=12.645 $Y2=2.39
r210 48 49 174.519 $w=1.68e-07 $l=2.675e-06 $layer=LI1_cond $X=12.56 $Y=2.475
+ $X2=9.885 $Y2=2.475
r211 47 55 9.03384 $w=1.7e-07 $l=3.35e-07 $layer=LI1_cond $X=6.98 $Y=1.53
+ $X2=6.98 $Y2=1.865
r212 47 52 33.9251 $w=1.68e-07 $l=5.2e-07 $layer=LI1_cond $X=6.98 $Y=1.53
+ $X2=6.98 $Y2=1.01
r213 42 52 9.49412 $w=3.88e-07 $l=1.95e-07 $layer=LI1_cond $X=6.87 $Y=0.815
+ $X2=6.87 $Y2=1.01
r214 42 44 8.86495 $w=3.88e-07 $l=3e-07 $layer=LI1_cond $X=6.87 $Y=0.815
+ $X2=6.87 $Y2=0.515
r215 38 75 456.362 $w=1.5e-07 $l=8.9e-07 $layer=POLY_cond $X=12.77 $Y=0.58
+ $X2=12.77 $Y2=1.47
r216 34 76 256.548 $w=1.8e-07 $l=6.6e-07 $layer=POLY_cond $X=12.67 $Y=2.46
+ $X2=12.67 $Y2=1.8
r217 30 73 155.484 $w=1.8e-07 $l=4e-07 $layer=POLY_cond $X=9.605 $Y=2.75
+ $X2=9.605 $Y2=2.35
r218 26 72 130.755 $w=1.5e-07 $l=2.55e-07 $layer=POLY_cond $X=9.58 $Y=1.765
+ $X2=9.58 $Y2=2.02
r219 25 41 17.0838 $w=1.85e-07 $l=9.08295e-08 $layer=POLY_cond $X=8.68 $Y=1.69
+ $X2=8.605 $Y2=1.655
r220 24 26 26.9307 $w=1.5e-07 $l=1.06066e-07 $layer=POLY_cond $X=9.505 $Y=1.69
+ $X2=9.58 $Y2=1.765
r221 24 25 423.032 $w=1.5e-07 $l=8.25e-07 $layer=POLY_cond $X=9.505 $Y=1.69
+ $X2=8.68 $Y2=1.69
r222 20 41 8.32657 $w=1.5e-07 $l=1.1e-07 $layer=POLY_cond $X=8.605 $Y=1.545
+ $X2=8.605 $Y2=1.655
r223 20 22 435.851 $w=1.5e-07 $l=8.5e-07 $layer=POLY_cond $X=8.605 $Y=1.545
+ $X2=8.605 $Y2=0.695
r224 19 40 17.2177 $w=2.2e-07 $l=9e-08 $layer=POLY_cond $X=8.235 $Y=1.655
+ $X2=8.145 $Y2=1.655
r225 18 41 17.0838 $w=1.85e-07 $l=7.5e-08 $layer=POLY_cond $X=8.53 $Y=1.655
+ $X2=8.605 $Y2=1.655
r226 18 19 86.0483 $w=2.2e-07 $l=2.95e-07 $layer=POLY_cond $X=8.53 $Y=1.655
+ $X2=8.235 $Y2=1.655
r227 15 40 8.19472 $w=1.8e-07 $l=1.1e-07 $layer=POLY_cond $X=8.145 $Y=1.765
+ $X2=8.145 $Y2=1.655
r228 15 17 170.039 $w=1.8e-07 $l=6.35e-07 $layer=POLY_cond $X=8.145 $Y=1.765
+ $X2=8.145 $Y2=2.4
r229 14 58 8.65449 $w=2.2e-07 $l=2.06961e-07 $layer=POLY_cond $X=7.69 $Y=1.655
+ $X2=7.487 $Y2=1.647
r230 13 40 17.2177 $w=2.2e-07 $l=9e-08 $layer=POLY_cond $X=8.055 $Y=1.655
+ $X2=8.145 $Y2=1.655
r231 13 14 106.467 $w=2.2e-07 $l=3.65e-07 $layer=POLY_cond $X=8.055 $Y=1.655
+ $X2=7.69 $Y2=1.655
r232 9 58 16.755 $w=2.77e-07 $l=1.77088e-07 $layer=POLY_cond $X=7.615 $Y=1.53
+ $X2=7.487 $Y2=1.647
r233 9 11 405.085 $w=1.5e-07 $l=7.9e-07 $layer=POLY_cond $X=7.615 $Y=1.53
+ $X2=7.615 $Y2=0.74
r234 2 55 600 $w=1.7e-07 $l=2.38118e-07 $layer=licon1_PDIFF $count=1 $X=6.845
+ $Y=1.82 $X2=6.98 $Y2=2
r235 1 44 91 $w=1.7e-07 $l=2.03286e-07 $layer=licon1_NDIFF $count=2 $X=6.7
+ $Y=0.37 $X2=6.84 $Y2=0.515
.ends

.subckt PM_SKY130_FD_SC_MS__SEDFXTP_2%A_1979_71# 1 2 9 13 17 19 21 23 24 28 31
+ 34 35 41 45 47 51
c104 34 0 1.80054e-19 $X=11.635 $Y=1.355
r105 43 45 8.15508 $w=1.68e-07 $l=1.25e-07 $layer=LI1_cond $X=10.915 $Y=2.135
+ $X2=11.04 $Y2=2.135
r106 39 51 13.1146 $w=3.3e-07 $l=7.5e-08 $layer=POLY_cond $X=10.08 $Y=1.34
+ $X2=10.155 $Y2=1.34
r107 39 48 19.2347 $w=3.3e-07 $l=1.1e-07 $layer=POLY_cond $X=10.08 $Y=1.34
+ $X2=9.97 $Y2=1.34
r108 38 41 8.48463 $w=2.98e-07 $l=1.65e-07 $layer=LI1_cond $X=10.08 $Y=1.34
+ $X2=10.245 $Y2=1.34
r109 38 39 145.28 $w=1.7e-07 $l=1.7e-07 $layer=licon1_POLY $count=1 $X=10.08
+ $Y=1.34 $X2=10.08 $Y2=1.34
r110 34 35 72.64 $w=1.7e-07 $l=3.4e-07 $layer=licon1_POLY $count=2 $X=11.635
+ $Y=1.355 $X2=11.635 $Y2=1.355
r111 32 47 2.53577 $w=3.3e-07 $l=3.22102e-07 $layer=LI1_cond $X=11.125 $Y=1.355
+ $X2=10.875 $Y2=1.19
r112 32 34 17.8105 $w=3.28e-07 $l=5.1e-07 $layer=LI1_cond $X=11.125 $Y=1.355
+ $X2=11.635 $Y2=1.355
r113 31 45 0.716491 $w=1.7e-07 $l=8.5e-08 $layer=LI1_cond $X=11.04 $Y=2.05
+ $X2=11.04 $Y2=2.135
r114 30 47 3.59786 $w=1.7e-07 $l=4.04166e-07 $layer=LI1_cond $X=11.04 $Y=1.52
+ $X2=10.875 $Y2=1.19
r115 30 31 34.5775 $w=1.68e-07 $l=5.3e-07 $layer=LI1_cond $X=11.04 $Y=1.52
+ $X2=11.04 $Y2=2.05
r116 26 47 3.59786 $w=2.5e-07 $l=1.25e-07 $layer=LI1_cond $X=11 $Y=1.19
+ $X2=10.875 $Y2=1.19
r117 26 28 17.5171 $w=2.48e-07 $l=3.8e-07 $layer=LI1_cond $X=11 $Y=1.19 $X2=11
+ $Y2=0.81
r118 24 47 2.53577 $w=1.7e-07 $l=8.5e-08 $layer=LI1_cond $X=10.875 $Y=1.275
+ $X2=10.875 $Y2=1.19
r119 24 41 41.1016 $w=1.68e-07 $l=6.3e-07 $layer=LI1_cond $X=10.875 $Y=1.275
+ $X2=10.245 $Y2=1.275
r120 21 23 134.96 $w=1.5e-07 $l=4.2e-07 $layer=POLY_cond $X=11.935 $Y=1.11
+ $X2=11.935 $Y2=0.69
r121 17 21 40.1667 $w=2.7e-07 $l=3.76032e-07 $layer=POLY_cond $X=11.71 $Y=1.39
+ $X2=11.935 $Y2=1.11
r122 17 35 13.3889 $w=2.7e-07 $l=7.5e-08 $layer=POLY_cond $X=11.71 $Y=1.39
+ $X2=11.635 $Y2=1.39
r123 17 19 365.387 $w=1.8e-07 $l=9.4e-07 $layer=POLY_cond $X=11.71 $Y=1.52
+ $X2=11.71 $Y2=2.46
r124 11 51 16.9318 $w=1.8e-07 $l=1.65e-07 $layer=POLY_cond $X=10.155 $Y=1.505
+ $X2=10.155 $Y2=1.34
r125 11 13 483.944 $w=1.8e-07 $l=1.245e-06 $layer=POLY_cond $X=10.155 $Y=1.505
+ $X2=10.155 $Y2=2.75
r126 7 48 21.2229 $w=1.5e-07 $l=1.65e-07 $layer=POLY_cond $X=9.97 $Y=1.175
+ $X2=9.97 $Y2=1.34
r127 7 9 246.128 $w=1.5e-07 $l=4.8e-07 $layer=POLY_cond $X=9.97 $Y=1.175
+ $X2=9.97 $Y2=0.695
r128 2 43 600 $w=1.7e-07 $l=2.01494e-07 $layer=licon1_PDIFF $count=1 $X=10.78
+ $Y=1.99 $X2=10.915 $Y2=2.135
r129 1 28 182 $w=1.7e-07 $l=5.05173e-07 $layer=licon1_NDIFF $count=1 $X=10.82
+ $Y=0.37 $X2=10.96 $Y2=0.81
.ends

.subckt PM_SKY130_FD_SC_MS__SEDFXTP_2%A_1736_97# 1 2 9 13 17 21 22 27 28 31 32
r88 32 38 40.9207 $w=3.65e-07 $l=1.65e-07 $layer=POLY_cond $X=10.637 $Y=1.665
+ $X2=10.637 $Y2=1.83
r89 32 37 46.6671 $w=3.65e-07 $l=1.65e-07 $layer=POLY_cond $X=10.637 $Y=1.665
+ $X2=10.637 $Y2=1.5
r90 31 34 2.7938 $w=3.28e-07 $l=8e-08 $layer=LI1_cond $X=10.62 $Y=1.665
+ $X2=10.62 $Y2=1.745
r91 31 32 145.28 $w=1.7e-07 $l=1.7e-07 $layer=licon1_POLY $count=1 $X=10.62
+ $Y=1.665 $X2=10.62 $Y2=1.665
r92 27 28 10.5918 $w=3.58e-07 $l=2.3e-07 $layer=LI1_cond $X=9.365 $Y=2.75
+ $X2=9.365 $Y2=2.52
r93 23 25 13.0481 $w=1.68e-07 $l=2e-07 $layer=LI1_cond $X=9.07 $Y=1.745 $X2=9.27
+ $Y2=1.745
r94 22 25 5.54545 $w=1.68e-07 $l=8.5e-08 $layer=LI1_cond $X=9.355 $Y=1.745
+ $X2=9.27 $Y2=1.745
r95 21 34 4.62375 $w=1.7e-07 $l=1.65e-07 $layer=LI1_cond $X=10.455 $Y=1.745
+ $X2=10.62 $Y2=1.745
r96 21 22 71.7647 $w=1.68e-07 $l=1.1e-06 $layer=LI1_cond $X=10.455 $Y=1.745
+ $X2=9.355 $Y2=1.745
r97 19 25 0.716491 $w=1.7e-07 $l=8.5e-08 $layer=LI1_cond $X=9.27 $Y=1.83
+ $X2=9.27 $Y2=1.745
r98 19 28 45.016 $w=1.68e-07 $l=6.9e-07 $layer=LI1_cond $X=9.27 $Y=1.83 $X2=9.27
+ $Y2=2.52
r99 15 23 0.716491 $w=1.7e-07 $l=8.5e-08 $layer=LI1_cond $X=9.07 $Y=1.66
+ $X2=9.07 $Y2=1.745
r100 15 17 58.7166 $w=1.68e-07 $l=9e-07 $layer=LI1_cond $X=9.07 $Y=1.66 $X2=9.07
+ $Y2=0.76