* File: sky130_fd_sc_ms__sedfxtp_1.pex.spice
* Created: Fri Aug 28 18:16:22 2020
* Program "Calibre xRC"
* Version "v2018.4_34.26"
* Nominal Temperature: 27C
* Circuit Temperature: 27C
* 
.subckt PM_SKY130_FD_SC_MS__SEDFXTP_1%D 2 5 9 11 12 13 17 18
c41 17 0 4.24886e-20 $X=0.58 $Y=1.275
r42 17 19 46.3065 $w=3.4e-07 $l=1.65e-07 $layer=POLY_cond $X=0.575 $Y=1.275
+ $X2=0.575 $Y2=1.11
r43 17 18 72.64 $w=1.7e-07 $l=3.4e-07 $layer=licon1_POLY $count=2 $X=0.58
+ $Y=1.275 $X2=0.58 $Y2=1.275
r44 12 13 11.2212 $w=3.78e-07 $l=3.7e-07 $layer=LI1_cond $X=0.615 $Y=1.295
+ $X2=0.615 $Y2=1.665
r45 12 18 0.606549 $w=3.78e-07 $l=2e-08 $layer=LI1_cond $X=0.615 $Y=1.295
+ $X2=0.615 $Y2=1.275
r46 9 19 271.766 $w=1.5e-07 $l=5.3e-07 $layer=POLY_cond $X=0.64 $Y=0.58 $X2=0.64
+ $Y2=1.11
r47 5 11 334.29 $w=1.8e-07 $l=8.6e-07 $layer=POLY_cond $X=0.495 $Y=2.64
+ $X2=0.495 $Y2=1.78
r48 2 11 41.5618 $w=3.4e-07 $l=1.7e-07 $layer=POLY_cond $X=0.575 $Y=1.61
+ $X2=0.575 $Y2=1.78
r49 1 17 0.848592 $w=3.4e-07 $l=5e-09 $layer=POLY_cond $X=0.575 $Y=1.28
+ $X2=0.575 $Y2=1.275
r50 1 2 56.007 $w=3.4e-07 $l=3.3e-07 $layer=POLY_cond $X=0.575 $Y=1.28 $X2=0.575
+ $Y2=1.61
.ends

.subckt PM_SKY130_FD_SC_MS__SEDFXTP_1%A_159_404# 1 2 7 9 13 21 22 23 24 25 26 29
+ 33 35 39 42 47
c116 42 0 9.40653e-20 $X=1.79 $Y=2.035
c117 24 0 4.24886e-20 $X=1.305 $Y=1.065
c118 22 0 1.72336e-19 $X=1.14 $Y=1.605
r119 40 47 40.2181 $w=3.3e-07 $l=2.3e-07 $layer=POLY_cond $X=2.22 $Y=1.685
+ $X2=2.45 $Y2=1.685
r120 39 40 145.28 $w=1.7e-07 $l=1.7e-07 $layer=licon1_POLY $count=1 $X=2.22
+ $Y=1.685 $X2=2.22 $Y2=1.685
r121 37 39 9.25447 $w=3.28e-07 $l=2.65e-07 $layer=LI1_cond $X=2.22 $Y=1.95
+ $X2=2.22 $Y2=1.685
r122 36 42 5.16603 $w=1.7e-07 $l=8.5e-08 $layer=LI1_cond $X=1.875 $Y=2.035
+ $X2=1.79 $Y2=2.035
r123 35 37 7.76618 $w=1.7e-07 $l=2.03101e-07 $layer=LI1_cond $X=2.055 $Y=2.035
+ $X2=2.22 $Y2=1.95
r124 35 36 11.7433 $w=1.68e-07 $l=1.8e-07 $layer=LI1_cond $X=2.055 $Y=2.035
+ $X2=1.875 $Y2=2.035
r125 31 42 1.34256 $w=1.7e-07 $l=8.5e-08 $layer=LI1_cond $X=1.79 $Y=2.12
+ $X2=1.79 $Y2=2.035
r126 31 33 25.7701 $w=1.68e-07 $l=3.95e-07 $layer=LI1_cond $X=1.79 $Y=2.12
+ $X2=1.79 $Y2=2.515
r127 27 29 9.91101 $w=2.48e-07 $l=2.15e-07 $layer=LI1_cond $X=1.765 $Y=0.98
+ $X2=1.765 $Y2=0.765
r128 25 42 5.16603 $w=1.7e-07 $l=8.5e-08 $layer=LI1_cond $X=1.705 $Y=2.035
+ $X2=1.79 $Y2=2.035
r129 25 26 26.0963 $w=1.68e-07 $l=4e-07 $layer=LI1_cond $X=1.705 $Y=2.035
+ $X2=1.305 $Y2=2.035
r130 23 27 14.8321 $w=1.01e-07 $l=1.62019e-07 $layer=LI1_cond $X=1.64 $Y=1.065
+ $X2=1.765 $Y2=0.98
r131 23 24 21.8556 $w=1.68e-07 $l=3.35e-07 $layer=LI1_cond $X=1.64 $Y=1.065
+ $X2=1.305 $Y2=1.065
r132 21 22 72.64 $w=1.7e-07 $l=3.4e-07 $layer=licon1_POLY $count=2 $X=1.14
+ $Y=1.605 $X2=1.14 $Y2=1.605
r133 19 26 7.76618 $w=1.7e-07 $l=2.03101e-07 $layer=LI1_cond $X=1.14 $Y=1.95
+ $X2=1.305 $Y2=2.035
r134 19 21 12.0483 $w=3.28e-07 $l=3.45e-07 $layer=LI1_cond $X=1.14 $Y=1.95
+ $X2=1.14 $Y2=1.605
r135 18 24 7.76618 $w=1.7e-07 $l=2.03101e-07 $layer=LI1_cond $X=1.14 $Y=1.15
+ $X2=1.305 $Y2=1.065
r136 18 21 15.8897 $w=3.28e-07 $l=4.55e-07 $layer=LI1_cond $X=1.14 $Y=1.15
+ $X2=1.14 $Y2=1.605
r137 17 22 72.5674 $w=3.3e-07 $l=4.15e-07 $layer=POLY_cond $X=1.14 $Y=2.02
+ $X2=1.14 $Y2=1.605
r138 11 47 21.2229 $w=1.5e-07 $l=1.65e-07 $layer=POLY_cond $X=2.45 $Y=1.52
+ $X2=2.45 $Y2=1.685
r139 11 13 387.138 $w=1.5e-07 $l=7.55e-07 $layer=POLY_cond $X=2.45 $Y=1.52
+ $X2=2.45 $Y2=0.765
r140 7 17 96.0234 $w=1.28e-07 $l=2.55e-07 $layer=POLY_cond $X=0.885 $Y=2.095
+ $X2=1.14 $Y2=2.095
r141 7 9 182.694 $w=1.8e-07 $l=4.7e-07 $layer=POLY_cond $X=0.885 $Y=2.17
+ $X2=0.885 $Y2=2.64
r142 2 33 600 $w=1.7e-07 $l=2.62678e-07 $layer=licon1_PDIFF $count=1 $X=1.645
+ $Y=2.315 $X2=1.79 $Y2=2.515
r143 1 29 182 $w=1.7e-07 $l=2.73038e-07 $layer=licon1_NDIFF $count=1 $X=1.66
+ $Y=0.555 $X2=1.805 $Y2=0.765
.ends

.subckt PM_SKY130_FD_SC_MS__SEDFXTP_1%DE 3 5 6 10 11 13 14 16 17 18 19 21 23 28
+ 31 32 33
c90 33 0 9.40653e-20 $X=1.68 $Y=1.65
c91 32 0 1.3237e-19 $X=1.68 $Y=1.485
r92 31 33 46.2115 $w=3.3e-07 $l=1.65e-07 $layer=POLY_cond $X=1.68 $Y=1.485
+ $X2=1.68 $Y2=1.65
r93 31 32 145.28 $w=1.7e-07 $l=1.7e-07 $layer=licon1_POLY $count=1 $X=1.68
+ $Y=1.485 $X2=1.68 $Y2=1.485
r94 28 32 6.28605 $w=3.28e-07 $l=1.8e-07 $layer=LI1_cond $X=1.68 $Y=1.665
+ $X2=1.68 $Y2=1.485
r95 19 21 105.772 $w=1.8e-07 $l=3.95e-07 $layer=POLY_cond $X=2.695 $Y=2.24
+ $X2=2.695 $Y2=2.635
r96 17 19 27.2212 $w=1.5e-07 $l=1.21861e-07 $layer=POLY_cond $X=2.605 $Y=2.165
+ $X2=2.695 $Y2=2.24
r97 17 18 256.383 $w=1.5e-07 $l=5e-07 $layer=POLY_cond $X=2.605 $Y=2.165
+ $X2=2.105 $Y2=2.165
r98 14 23 2.83073 $w=1.5e-07 $l=7.5e-08 $layer=POLY_cond $X=2.02 $Y=1.05
+ $X2=2.02 $Y2=1.125
r99 14 16 91.58 $w=1.5e-07 $l=2.85e-07 $layer=POLY_cond $X=2.02 $Y=1.05 $X2=2.02
+ $Y2=0.765
r100 11 18 46.1489 $w=1.5e-07 $l=9e-08 $layer=POLY_cond $X=2.015 $Y=2.165
+ $X2=2.105 $Y2=2.165
r101 11 25 141.011 $w=1.5e-07 $l=2.75e-07 $layer=POLY_cond $X=2.015 $Y=2.165
+ $X2=1.74 $Y2=2.165
r102 11 13 105.772 $w=1.8e-07 $l=3.95e-07 $layer=POLY_cond $X=2.015 $Y=2.24
+ $X2=2.015 $Y2=2.635
r103 10 25 2.83073 $w=1.5e-07 $l=7.5e-08 $layer=POLY_cond $X=1.74 $Y=2.09
+ $X2=1.74 $Y2=2.165
r104 10 33 225.617 $w=1.5e-07 $l=4.4e-07 $layer=POLY_cond $X=1.74 $Y=2.09
+ $X2=1.74 $Y2=1.65
r105 7 23 174.34 $w=1.5e-07 $l=3.4e-07 $layer=POLY_cond $X=1.68 $Y=1.125
+ $X2=2.02 $Y2=1.125
r106 7 31 49.8355 $w=3.3e-07 $l=2.85e-07 $layer=POLY_cond $X=1.68 $Y=1.2
+ $X2=1.68 $Y2=1.485
r107 5 7 84.6064 $w=1.5e-07 $l=1.65e-07 $layer=POLY_cond $X=1.515 $Y=1.125
+ $X2=1.68 $Y2=1.125
r108 5 6 210.234 $w=1.5e-07 $l=4.1e-07 $layer=POLY_cond $X=1.515 $Y=1.125
+ $X2=1.105 $Y2=1.125
r109 1 6 26.9307 $w=1.5e-07 $l=1.06066e-07 $layer=POLY_cond $X=1.03 $Y=1.05
+ $X2=1.105 $Y2=1.125
r110 1 3 241 $w=1.5e-07 $l=4.7e-07 $layer=POLY_cond $X=1.03 $Y=1.05 $X2=1.03
+ $Y2=0.58
.ends

.subckt PM_SKY130_FD_SC_MS__SEDFXTP_1%A_547_301# 1 2 9 13 15 17 18 19 22 26 29
+ 33 36 40 43 44 45 51 52 58 59 62 69
c234 52 0 8.71884e-20 $X=14.16 $Y=1.665
c235 44 0 7.68314e-20 $X=14.015 $Y=1.665
c236 13 0 1.92249e-19 $X=3.085 $Y=2.635
r237 57 59 32.3493 $w=3.3e-07 $l=1.85e-07 $layer=POLY_cond $X=2.9 $Y=1.67
+ $X2=3.085 $Y2=1.67
r238 57 58 145.28 $w=1.7e-07 $l=1.7e-07 $layer=licon1_POLY $count=1 $X=2.9
+ $Y=1.67 $X2=2.9 $Y2=1.67
r239 54 57 10.4917 $w=3.3e-07 $l=6e-08 $layer=POLY_cond $X=2.84 $Y=1.67 $X2=2.9
+ $Y2=1.67
r240 52 69 6.51792 $w=2.38e-07 $l=1.15e-07 $layer=LI1_cond $X=14.165 $Y=1.665
+ $X2=14.165 $Y2=1.55
r241 51 52 9.3 $w=1.7e-07 $l=1.7e-07 $layer=mcon $count=1 $X=14.16 $Y=1.665
+ $X2=14.16 $Y2=1.665
r242 48 58 9.07985 $w=3.28e-07 $l=2.6e-07 $layer=LI1_cond $X=2.64 $Y=1.67
+ $X2=2.9 $Y2=1.67
r243 47 48 9.3 $w=1.7e-07 $l=1.7e-07 $layer=mcon $count=1 $X=2.64 $Y=1.665
+ $X2=2.64 $Y2=1.665
r244 45 47 0.115467 $w=2.3e-07 $l=1.45e-07 $layer=MET1_cond $X=2.785 $Y=1.665
+ $X2=2.64 $Y2=1.665
r245 44 51 0.115467 $w=2.3e-07 $l=1.45e-07 $layer=MET1_cond $X=14.015 $Y=1.665
+ $X2=14.16 $Y2=1.665
r246 44 45 13.8985 $w=1.4e-07 $l=1.123e-05 $layer=MET1_cond $X=14.015 $Y=1.665
+ $X2=2.785 $Y2=1.665
r247 42 69 48.2781 $w=1.68e-07 $l=7.4e-07 $layer=LI1_cond $X=14.2 $Y=0.81
+ $X2=14.2 $Y2=1.55
r248 40 42 10.5918 $w=3.58e-07 $l=2.3e-07 $layer=LI1_cond $X=14.105 $Y=0.58
+ $X2=14.105 $Y2=0.81
r249 36 43 5.46396 $w=2.85e-07 $l=1.73043e-07 $layer=LI1_cond $X=14.165 $Y=2.075
+ $X2=14.12 $Y2=2.227
r250 35 52 0.240092 $w=2.38e-07 $l=5e-09 $layer=LI1_cond $X=14.165 $Y=1.67
+ $X2=14.165 $Y2=1.665
r251 35 36 19.4475 $w=2.38e-07 $l=4.05e-07 $layer=LI1_cond $X=14.165 $Y=1.67
+ $X2=14.165 $Y2=2.075
r252 31 43 5.46396 $w=2.85e-07 $l=1.53e-07 $layer=LI1_cond $X=14.12 $Y=2.38
+ $X2=14.12 $Y2=2.227
r253 31 33 2.96841 $w=3.28e-07 $l=8.5e-08 $layer=LI1_cond $X=14.12 $Y=2.38
+ $X2=14.12 $Y2=2.465
r254 29 63 40.6903 $w=3.3e-07 $l=1.65e-07 $layer=POLY_cond $X=13.23 $Y=2.215
+ $X2=13.23 $Y2=2.38
r255 29 62 46.2115 $w=3.3e-07 $l=1.65e-07 $layer=POLY_cond $X=13.23 $Y=2.215
+ $X2=13.23 $Y2=2.05
r256 28 29 145.28 $w=1.7e-07 $l=1.7e-07 $layer=licon1_POLY $count=1 $X=13.23
+ $Y=2.215 $X2=13.23 $Y2=2.215
r257 26 43 1.09951 $w=3.05e-07 $l=1.65e-07 $layer=LI1_cond $X=13.955 $Y=2.227
+ $X2=14.12 $Y2=2.227
r258 26 28 27.3941 $w=3.03e-07 $l=7.25e-07 $layer=LI1_cond $X=13.955 $Y=2.227
+ $X2=13.23 $Y2=2.227
r259 24 62 530.713 $w=1.5e-07 $l=1.035e-06 $layer=POLY_cond $X=13.29 $Y=1.015
+ $X2=13.29 $Y2=2.05
r260 22 63 143.823 $w=1.8e-07 $l=3.7e-07 $layer=POLY_cond $X=13.185 $Y=2.75
+ $X2=13.185 $Y2=2.38
r261 18 24 26.9307 $w=1.5e-07 $l=1.06066e-07 $layer=POLY_cond $X=13.215 $Y=0.94
+ $X2=13.29 $Y2=1.015
r262 18 19 199.979 $w=1.5e-07 $l=3.9e-07 $layer=POLY_cond $X=13.215 $Y=0.94
+ $X2=12.825 $Y2=0.94
r263 15 19 26.9307 $w=1.5e-07 $l=1.06066e-07 $layer=POLY_cond $X=12.75 $Y=0.865
+ $X2=12.825 $Y2=0.94
r264 15 17 91.58 $w=1.5e-07 $l=2.85e-07 $layer=POLY_cond $X=12.75 $Y=0.865
+ $X2=12.75 $Y2=0.58
r265 11 59 16.9318 $w=1.8e-07 $l=1.65e-07 $layer=POLY_cond $X=3.085 $Y=1.835
+ $X2=3.085 $Y2=1.67
r266 11 13 310.968 $w=1.8e-07 $l=8e-07 $layer=POLY_cond $X=3.085 $Y=1.835
+ $X2=3.085 $Y2=2.635
r267 7 54 21.2229 $w=1.5e-07 $l=1.65e-07 $layer=POLY_cond $X=2.84 $Y=1.505
+ $X2=2.84 $Y2=1.67
r268 7 9 379.447 $w=1.5e-07 $l=7.4e-07 $layer=POLY_cond $X=2.84 $Y=1.505
+ $X2=2.84 $Y2=0.765
r269 2 33 300 $w=1.7e-07 $l=2.01494e-07 $layer=licon1_PDIFF $count=2 $X=13.985
+ $Y=2.32 $X2=14.12 $Y2=2.465
r270 1 40 182 $w=1.7e-07 $l=2.71109e-07 $layer=licon1_NDIFF $count=1 $X=13.95
+ $Y=0.37 $X2=14.09 $Y2=0.58
.ends

.subckt PM_SKY130_FD_SC_MS__SEDFXTP_1%A_639_85# 1 2 7 9 10 11 14 18 20 23 24 29
+ 30 32 33 37 38 43 45 49
c110 43 0 1.30585e-19 $X=4.41 $Y=0.805
c111 38 0 1.64952e-19 $X=5.655 $Y=1.58
r112 46 49 4.60989 $w=4.78e-07 $l=1.85e-07 $layer=LI1_cond $X=4.1 $Y=2.495
+ $X2=4.285 $Y2=2.495
r113 37 38 72.64 $w=1.7e-07 $l=3.4e-07 $layer=licon1_POLY $count=2 $X=5.655
+ $Y=1.58 $X2=5.655 $Y2=1.58
r114 35 37 11.699 $w=3.28e-07 $l=3.35e-07 $layer=LI1_cond $X=5.655 $Y=1.915
+ $X2=5.655 $Y2=1.58
r115 34 45 2.36881 $w=1.7e-07 $l=1.4e-07 $layer=LI1_cond $X=4.185 $Y=2 $X2=4.045
+ $Y2=2
r116 33 35 7.76618 $w=1.7e-07 $l=2.03101e-07 $layer=LI1_cond $X=5.49 $Y=2
+ $X2=5.655 $Y2=1.915
r117 33 34 85.139 $w=1.68e-07 $l=1.305e-06 $layer=LI1_cond $X=5.49 $Y=2
+ $X2=4.185 $Y2=2
r118 32 46 6.90116 $w=1.7e-07 $l=2.4e-07 $layer=LI1_cond $X=4.1 $Y=2.255 $X2=4.1
+ $Y2=2.495
r119 31 45 4.06715 $w=2.25e-07 $l=1.09087e-07 $layer=LI1_cond $X=4.1 $Y=2.085
+ $X2=4.045 $Y2=2
r120 31 32 11.0909 $w=1.68e-07 $l=1.7e-07 $layer=LI1_cond $X=4.1 $Y=2.085
+ $X2=4.1 $Y2=2.255
r121 29 30 58.112 $w=1.7e-07 $l=4.25e-07 $layer=licon1_POLY $count=2 $X=3.995
+ $Y=1.78 $X2=3.995 $Y2=1.78
r122 27 45 4.06715 $w=2.25e-07 $l=8.5e-08 $layer=LI1_cond $X=4.045 $Y=1.915
+ $X2=4.045 $Y2=2
r123 27 29 5.55642 $w=2.78e-07 $l=1.35e-07 $layer=LI1_cond $X=4.045 $Y=1.915
+ $X2=4.045 $Y2=1.78
r124 26 29 31.6922 $w=2.78e-07 $l=7.7e-07 $layer=LI1_cond $X=4.045 $Y=1.01
+ $X2=4.045 $Y2=1.78
r125 23 24 58.112 $w=1.7e-07 $l=4.25e-07 $layer=licon1_POLY $count=2 $X=3.995
+ $Y=0.42 $X2=3.995 $Y2=0.42
r126 21 43 10.3862 $w=4.03e-07 $l=3.65e-07 $layer=LI1_cond $X=4.045 $Y=0.807
+ $X2=4.41 $Y2=0.807
r127 21 26 2.89865 $w=2.8e-07 $l=2.03e-07 $layer=LI1_cond $X=4.045 $Y=0.807
+ $X2=4.045 $Y2=1.01
r128 21 23 7.61436 $w=2.78e-07 $l=1.85e-07 $layer=LI1_cond $X=4.045 $Y=0.605
+ $X2=4.045 $Y2=0.42
r129 19 38 59.4528 $w=3.3e-07 $l=3.4e-07 $layer=POLY_cond $X=5.655 $Y=1.92
+ $X2=5.655 $Y2=1.58
r130 19 20 40.6903 $w=3.3e-07 $l=1.65e-07 $layer=POLY_cond $X=5.655 $Y=1.92
+ $X2=5.655 $Y2=2.085
r131 17 30 101.42 $w=3.3e-07 $l=5.8e-07 $layer=POLY_cond $X=3.995 $Y=1.2
+ $X2=3.995 $Y2=1.78
r132 17 18 10.1687 $w=3.3e-07 $l=7.5e-08 $layer=POLY_cond $X=3.995 $Y=1.2
+ $X2=3.995 $Y2=1.125
r133 16 24 110.163 $w=3.3e-07 $l=6.3e-07 $layer=POLY_cond $X=3.995 $Y=1.05
+ $X2=3.995 $Y2=0.42
r134 16 18 10.1687 $w=3.3e-07 $l=7.5e-08 $layer=POLY_cond $X=3.995 $Y=1.05
+ $X2=3.995 $Y2=1.125
r135 14 20 198.242 $w=1.8e-07 $l=5.1e-07 $layer=POLY_cond $X=5.58 $Y=2.595
+ $X2=5.58 $Y2=2.085
r136 10 18 16.9349 $w=1.5e-07 $l=1.65e-07 $layer=POLY_cond $X=3.83 $Y=1.125
+ $X2=3.995 $Y2=1.125
r137 10 11 248.691 $w=1.5e-07 $l=4.85e-07 $layer=POLY_cond $X=3.83 $Y=1.125
+ $X2=3.345 $Y2=1.125
r138 7 11 26.9307 $w=1.5e-07 $l=1.06066e-07 $layer=POLY_cond $X=3.27 $Y=1.05
+ $X2=3.345 $Y2=1.125
r139 7 9 91.58 $w=1.5e-07 $l=2.85e-07 $layer=POLY_cond $X=3.27 $Y=1.05 $X2=3.27
+ $Y2=0.765
r140 2 49 600 $w=1.7e-07 $l=2.77489e-07 $layer=licon1_PDIFF $count=1 $X=4.155
+ $Y=2.275 $X2=4.285 $Y2=2.495
r141 1 43 182 $w=1.7e-07 $l=2.4e-07 $layer=licon1_NDIFF $count=1 $X=4.27
+ $Y=0.625 $X2=4.41 $Y2=0.805
.ends

.subckt PM_SKY130_FD_SC_MS__SEDFXTP_1%SCD 3 7 9 12
c41 12 0 1.14523e-19 $X=5.115 $Y=1.58
c42 3 0 1.30585e-19 $X=5.055 $Y=0.835
r43 12 15 40.6903 $w=3.3e-07 $l=1.65e-07 $layer=POLY_cond $X=5.115 $Y=1.58
+ $X2=5.115 $Y2=1.745
r44 12 14 46.2115 $w=3.3e-07 $l=1.65e-07 $layer=POLY_cond $X=5.115 $Y=1.58
+ $X2=5.115 $Y2=1.415
r45 12 13 145.28 $w=1.7e-07 $l=1.7e-07 $layer=licon1_POLY $count=1 $X=5.115
+ $Y=1.58 $X2=5.115 $Y2=1.58
r46 9 13 9.25201 $w=3.53e-07 $l=2.85e-07 $layer=LI1_cond $X=5.102 $Y=1.295
+ $X2=5.102 $Y2=1.58
r47 7 15 330.403 $w=1.8e-07 $l=8.5e-07 $layer=POLY_cond $X=5.19 $Y=2.595
+ $X2=5.19 $Y2=1.745
r48 3 14 297.404 $w=1.5e-07 $l=5.8e-07 $layer=POLY_cond $X=5.055 $Y=0.835
+ $X2=5.055 $Y2=1.415
.ends

.subckt PM_SKY130_FD_SC_MS__SEDFXTP_1%SCE 1 3 4 5 9 13 14 15 18 20 23
c77 23 0 5.07631e-20 $X=4.565 $Y=1.345
c78 20 0 1.14523e-19 $X=4.56 $Y=1.295
c79 1 0 1.43862e-19 $X=3.535 $Y=3.03
r80 23 26 40.6903 $w=3.3e-07 $l=1.65e-07 $layer=POLY_cond $X=4.565 $Y=1.345
+ $X2=4.565 $Y2=1.51
r81 23 25 46.2115 $w=3.3e-07 $l=1.65e-07 $layer=POLY_cond $X=4.565 $Y=1.345
+ $X2=4.565 $Y2=1.18
r82 20 23 145.28 $w=1.7e-07 $l=1.7e-07 $layer=licon1_POLY $count=1 $X=4.565
+ $Y=1.345 $X2=4.565 $Y2=1.345
r83 16 18 297.404 $w=1.5e-07 $l=5.8e-07 $layer=POLY_cond $X=5.415 $Y=0.255
+ $X2=5.415 $Y2=0.835
r84 14 16 26.9307 $w=1.5e-07 $l=1.06066e-07 $layer=POLY_cond $X=5.34 $Y=0.18
+ $X2=5.415 $Y2=0.255
r85 14 15 328.17 $w=1.5e-07 $l=6.4e-07 $layer=POLY_cond $X=5.34 $Y=0.18 $X2=4.7
+ $Y2=0.18
r86 13 25 176.904 $w=1.5e-07 $l=3.45e-07 $layer=POLY_cond $X=4.625 $Y=0.835
+ $X2=4.625 $Y2=1.18
r87 10 15 26.9307 $w=1.5e-07 $l=1.06066e-07 $layer=POLY_cond $X=4.625 $Y=0.255
+ $X2=4.7 $Y2=0.18
r88 10 13 297.404 $w=1.5e-07 $l=5.8e-07 $layer=POLY_cond $X=4.625 $Y=0.255
+ $X2=4.625 $Y2=0.835
r89 9 26 421.75 $w=1.8e-07 $l=1.085e-06 $layer=POLY_cond $X=4.51 $Y=2.595
+ $X2=4.51 $Y2=1.51
r90 7 9 169.089 $w=1.8e-07 $l=4.35e-07 $layer=POLY_cond $X=4.51 $Y=3.03 $X2=4.51
+ $Y2=2.595
r91 4 7 27.2212 $w=1.5e-07 $l=1.21861e-07 $layer=POLY_cond $X=4.42 $Y=3.105
+ $X2=4.51 $Y2=3.03
r92 4 5 407.649 $w=1.5e-07 $l=7.95e-07 $layer=POLY_cond $X=4.42 $Y=3.105
+ $X2=3.625 $Y2=3.105
r93 1 5 27.2212 $w=1.5e-07 $l=1.21861e-07 $layer=POLY_cond $X=3.535 $Y=3.03
+ $X2=3.625 $Y2=3.105
r94 1 3 105.772 $w=1.8e-07 $l=3.95e-07 $layer=POLY_cond $X=3.535 $Y=3.03
+ $X2=3.535 $Y2=2.635
.ends

.subckt PM_SKY130_FD_SC_MS__SEDFXTP_1%CLK 3 6 8 11 13
c39 11 0 1.38172e-19 $X=6.495 $Y=1.385
r40 11 14 40.6969 $w=3.35e-07 $l=1.65e-07 $layer=POLY_cond $X=6.492 $Y=1.385
+ $X2=6.492 $Y2=1.55
r41 11 13 46.255 $w=3.35e-07 $l=1.65e-07 $layer=POLY_cond $X=6.492 $Y=1.385
+ $X2=6.492 $Y2=1.22
r42 11 12 145.28 $w=1.7e-07 $l=1.7e-07 $layer=licon1_POLY $count=1 $X=6.495
+ $Y=1.385 $X2=6.495 $Y2=1.385
r43 8 12 3.14303 $w=3.28e-07 $l=9e-08 $layer=LI1_cond $X=6.495 $Y=1.295
+ $X2=6.495 $Y2=1.385
r44 6 14 307.081 $w=1.8e-07 $l=7.9e-07 $layer=POLY_cond $X=6.55 $Y=2.34 $X2=6.55
+ $Y2=1.55
r45 3 13 154.24 $w=1.5e-07 $l=4.8e-07 $layer=POLY_cond $X=6.4 $Y=0.74 $X2=6.4
+ $Y2=1.22
.ends

.subckt PM_SKY130_FD_SC_MS__SEDFXTP_1%A_1492_74# 1 2 9 11 13 16 20 24 26 27 28
+ 33 34 37 40 41 43 46 47 48 50 51 52 53 55 56 58 60 64 65 68 72
c229 72 0 2.60684e-20 $X=12.84 $Y=1.39
c230 64 0 8.92139e-20 $X=8.575 $Y=2.17
c231 56 0 6.25838e-20 $X=11.76 $Y=1.635
c232 55 0 4.09651e-20 $X=11.76 $Y=1.635
c233 37 0 1.94394e-19 $X=9.17 $Y=0.85
c234 33 0 1.24564e-19 $X=8.49 $Y=1.82
c235 20 0 1.18952e-19 $X=12.765 $Y=2.75
r236 72 85 40.6903 $w=3.3e-07 $l=1.65e-07 $layer=POLY_cond $X=12.84 $Y=1.39
+ $X2=12.84 $Y2=1.555
r237 71 72 145.28 $w=1.7e-07 $l=1.7e-07 $layer=licon1_POLY $count=1 $X=12.84
+ $Y=1.39 $X2=12.84 $Y2=1.39
r238 68 71 6.80989 $w=3.28e-07 $l=1.95e-07 $layer=LI1_cond $X=12.84 $Y=1.195
+ $X2=12.84 $Y2=1.39
r239 66 67 14.0135 $w=2.22e-07 $l=2.55e-07 $layer=LI1_cond $X=11.71 $Y=0.94
+ $X2=11.71 $Y2=1.195
r240 63 64 145.28 $w=1.7e-07 $l=1.7e-07 $layer=licon1_POLY $count=1 $X=8.575
+ $Y=2.17 $X2=8.575 $Y2=2.17
r241 59 67 2.3025 $w=1.7e-07 $l=1.5e-07 $layer=LI1_cond $X=11.86 $Y=1.195
+ $X2=11.71 $Y2=1.195
r242 58 68 4.62375 $w=1.7e-07 $l=1.65e-07 $layer=LI1_cond $X=12.675 $Y=1.195
+ $X2=12.84 $Y2=1.195
r243 58 59 53.1711 $w=1.68e-07 $l=8.15e-07 $layer=LI1_cond $X=12.675 $Y=1.195
+ $X2=11.86 $Y2=1.195
r244 56 81 46.2115 $w=3.3e-07 $l=1.65e-07 $layer=POLY_cond $X=11.76 $Y=1.635
+ $X2=11.76 $Y2=1.47
r245 55 56 145.28 $w=1.7e-07 $l=1.7e-07 $layer=licon1_POLY $count=1 $X=11.76
+ $Y=1.635 $X2=11.76 $Y2=1.635
r246 53 67 4.30642 $w=3e-07 $l=8.5e-08 $layer=LI1_cond $X=11.71 $Y=1.28
+ $X2=11.71 $Y2=1.195
r247 53 55 13.6372 $w=2.98e-07 $l=3.55e-07 $layer=LI1_cond $X=11.71 $Y=1.28
+ $X2=11.71 $Y2=1.635
r248 51 66 2.3025 $w=1.7e-07 $l=1.5e-07 $layer=LI1_cond $X=11.56 $Y=0.94
+ $X2=11.71 $Y2=0.94
r249 51 52 35.2299 $w=1.68e-07 $l=5.4e-07 $layer=LI1_cond $X=11.56 $Y=0.94
+ $X2=11.02 $Y2=0.94
r250 50 52 6.81649 $w=1.7e-07 $l=1.20208e-07 $layer=LI1_cond $X=10.935 $Y=0.855
+ $X2=11.02 $Y2=0.94
r251 49 50 28.0535 $w=1.68e-07 $l=4.3e-07 $layer=LI1_cond $X=10.935 $Y=0.425
+ $X2=10.935 $Y2=0.855
r252 47 49 6.81649 $w=1.7e-07 $l=1.20208e-07 $layer=LI1_cond $X=10.85 $Y=0.34
+ $X2=10.935 $Y2=0.425
r253 47 48 33.2727 $w=1.68e-07 $l=5.1e-07 $layer=LI1_cond $X=10.85 $Y=0.34
+ $X2=10.34 $Y2=0.34
r254 45 48 6.81649 $w=1.7e-07 $l=1.20208e-07 $layer=LI1_cond $X=10.255 $Y=0.425
+ $X2=10.34 $Y2=0.34
r255 45 46 27.7273 $w=1.68e-07 $l=4.25e-07 $layer=LI1_cond $X=10.255 $Y=0.425
+ $X2=10.255 $Y2=0.85
r256 44 65 2.15711 $w=1.7e-07 $l=1.28e-07 $layer=LI1_cond $X=9.34 $Y=0.935
+ $X2=9.212 $Y2=0.935
r257 43 46 6.81649 $w=1.7e-07 $l=1.20208e-07 $layer=LI1_cond $X=10.17 $Y=0.935
+ $X2=10.255 $Y2=0.85
r258 43 44 54.1497 $w=1.68e-07 $l=8.3e-07 $layer=LI1_cond $X=10.17 $Y=0.935
+ $X2=9.34 $Y2=0.935
r259 41 76 22.732 $w=3.3e-07 $l=1.3e-07 $layer=POLY_cond $X=9.175 $Y=1.18
+ $X2=9.045 $Y2=1.18
r260 40 41 145.28 $w=1.7e-07 $l=1.7e-07 $layer=licon1_POLY $count=1 $X=9.175
+ $Y=1.18 $X2=9.175 $Y2=1.18
r261 38 65 4.27425 $w=2.12e-07 $l=8.5e-08 $layer=LI1_cond $X=9.212 $Y=1.02
+ $X2=9.212 $Y2=0.935
r262 38 40 7.23101 $w=2.53e-07 $l=1.6e-07 $layer=LI1_cond $X=9.212 $Y=1.02
+ $X2=9.212 $Y2=1.18
r263 37 65 4.27425 $w=2.12e-07 $l=1.03899e-07 $layer=LI1_cond $X=9.17 $Y=0.85
+ $X2=9.212 $Y2=0.935
r264 36 37 27.7273 $w=1.68e-07 $l=4.25e-07 $layer=LI1_cond $X=9.17 $Y=0.425
+ $X2=9.17 $Y2=0.85
r265 35 60 5.16603 $w=1.7e-07 $l=8.5e-08 $layer=LI1_cond $X=8.575 $Y=0.34
+ $X2=8.49 $Y2=0.34
r266 34 36 6.81649 $w=1.7e-07 $l=1.20208e-07 $layer=LI1_cond $X=9.085 $Y=0.34
+ $X2=9.17 $Y2=0.425
r267 34 35 33.2727 $w=1.68e-07 $l=5.1e-07 $layer=LI1_cond $X=9.085 $Y=0.34
+ $X2=8.575 $Y2=0.34
r268 32 60 1.34256 $w=1.7e-07 $l=8.5e-08 $layer=LI1_cond $X=8.49 $Y=0.425
+ $X2=8.49 $Y2=0.34
r269 32 33 91.0107 $w=1.68e-07 $l=1.395e-06 $layer=LI1_cond $X=8.49 $Y=0.425
+ $X2=8.49 $Y2=1.82
r270 28 63 9.54783 $w=2.3e-07 $l=1.8e-07 $layer=LI1_cond $X=8.535 $Y=1.99
+ $X2=8.535 $Y2=2.17
r271 28 33 9.87245 $w=2.3e-07 $l=1.91181e-07 $layer=LI1_cond $X=8.535 $Y=1.99
+ $X2=8.49 $Y2=1.82
r272 28 30 9.49071 $w=3.38e-07 $l=2.8e-07 $layer=LI1_cond $X=8.405 $Y=1.99
+ $X2=8.125 $Y2=1.99
r273 26 60 5.16603 $w=1.7e-07 $l=8.5e-08 $layer=LI1_cond $X=8.405 $Y=0.34
+ $X2=8.49 $Y2=0.34
r274 26 27 41.754 $w=1.68e-07 $l=6.4e-07 $layer=LI1_cond $X=8.405 $Y=0.34
+ $X2=7.765 $Y2=0.34
r275 22 27 7.14316 $w=1.7e-07 $l=1.62019e-07 $layer=LI1_cond $X=7.64 $Y=0.425
+ $X2=7.765 $Y2=0.34
r276 22 24 4.14879 $w=2.48e-07 $l=9e-08 $layer=LI1_cond $X=7.64 $Y=0.425
+ $X2=7.64 $Y2=0.515
r277 20 85 464.508 $w=1.8e-07 $l=1.195e-06 $layer=POLY_cond $X=12.765 $Y=2.75
+ $X2=12.765 $Y2=1.555
r278 16 81 399.957 $w=1.5e-07 $l=7.8e-07 $layer=POLY_cond $X=11.85 $Y=0.69
+ $X2=11.85 $Y2=1.47
r279 11 76 21.2229 $w=1.5e-07 $l=1.65e-07 $layer=POLY_cond $X=9.045 $Y=1.015
+ $X2=9.045 $Y2=1.18
r280 11 13 102.827 $w=1.5e-07 $l=3.2e-07 $layer=POLY_cond $X=9.045 $Y=1.015
+ $X2=9.045 $Y2=0.695
r281 7 64 56.2646 $w=2.57e-07 $l=3.73497e-07 $layer=POLY_cond $X=8.875 $Y=2.335
+ $X2=8.575 $Y2=2.17
r282 7 9 161.315 $w=1.8e-07 $l=4.15e-07 $layer=POLY_cond $X=8.875 $Y=2.335
+ $X2=8.875 $Y2=2.75
r283 2 30 600 $w=1.7e-07 $l=2.06761e-07 $layer=licon1_PDIFF $count=1 $X=7.99
+ $Y=1.84 $X2=8.125 $Y2=1.99
r284 1 24 91 $w=1.7e-07 $l=2.03286e-07 $layer=licon1_NDIFF $count=2 $X=7.46
+ $Y=0.37 $X2=7.6 $Y2=0.515
.ends

.subckt PM_SKY130_FD_SC_MS__SEDFXTP_1%A_1295_74# 1 2 9 11 13 15 16 20 22 28 32
+ 36 39 40 41 44 47 50 51 53 56 59 60 61 63 66 72 76 77 82
c204 82 0 1.24564e-19 $X=9.34 $Y=1.925
c205 72 0 1.38172e-19 $X=7 $Y=1.96
c206 60 0 1.18952e-19 $X=12.03 $Y=2.475
c207 59 0 2.75377e-20 $X=9.57 $Y=2.39
c208 53 0 3.8828e-20 $X=9.485 $Y=2.09
c209 32 0 4.09651e-20 $X=12.23 $Y=2.46
c210 28 0 7.25971e-20 $X=9.375 $Y=2.75
c211 20 0 1.94394e-19 $X=8.365 $Y=0.695
r212 77 86 40.6903 $w=3.3e-07 $l=1.65e-07 $layer=POLY_cond $X=12.3 $Y=1.59
+ $X2=12.3 $Y2=1.755
r213 77 85 46.2115 $w=3.3e-07 $l=1.65e-07 $layer=POLY_cond $X=12.3 $Y=1.59
+ $X2=12.3 $Y2=1.425
r214 76 77 145.28 $w=1.7e-07 $l=1.7e-07 $layer=licon1_POLY $count=1 $X=12.3
+ $Y=1.59 $X2=12.3 $Y2=1.59
r215 73 76 7.48077 $w=2.83e-07 $l=1.85e-07 $layer=LI1_cond $X=12.115 $Y=1.592
+ $X2=12.3 $Y2=1.592
r216 71 72 2.83598 $w=3.98e-07 $l=8.5e-08 $layer=LI1_cond $X=6.915 $Y=1.96 $X2=7
+ $Y2=1.96
r217 69 71 4.03355 $w=3.98e-07 $l=1.4e-07 $layer=LI1_cond $X=6.775 $Y=1.96
+ $X2=6.915 $Y2=1.96
r218 62 73 3.76007 $w=1.7e-07 $l=1.43e-07 $layer=LI1_cond $X=12.115 $Y=1.735
+ $X2=12.115 $Y2=1.592
r219 62 63 42.7326 $w=1.68e-07 $l=6.55e-07 $layer=LI1_cond $X=12.115 $Y=1.735
+ $X2=12.115 $Y2=2.39
r220 60 63 6.81649 $w=1.7e-07 $l=1.20208e-07 $layer=LI1_cond $X=12.03 $Y=2.475
+ $X2=12.115 $Y2=2.39
r221 60 61 154.947 $w=1.68e-07 $l=2.375e-06 $layer=LI1_cond $X=12.03 $Y=2.475
+ $X2=9.655 $Y2=2.475
r222 59 61 6.81649 $w=1.7e-07 $l=1.20208e-07 $layer=LI1_cond $X=9.57 $Y=2.39
+ $X2=9.655 $Y2=2.475
r223 58 59 11.0909 $w=1.68e-07 $l=1.7e-07 $layer=LI1_cond $X=9.57 $Y=2.22
+ $X2=9.57 $Y2=2.39
r224 56 83 40.6903 $w=3.3e-07 $l=1.65e-07 $layer=POLY_cond $X=9.34 $Y=2.09
+ $X2=9.34 $Y2=2.255
r225 56 82 46.2115 $w=3.3e-07 $l=1.65e-07 $layer=POLY_cond $X=9.34 $Y=2.09
+ $X2=9.34 $Y2=1.925
r226 55 56 145.28 $w=1.7e-07 $l=1.7e-07 $layer=licon1_POLY $count=1 $X=9.34
+ $Y=2.09 $X2=9.34 $Y2=2.09
r227 53 58 7.21222 $w=2.6e-07 $l=1.67183e-07 $layer=LI1_cond $X=9.485 $Y=2.09
+ $X2=9.57 $Y2=2.22
r228 53 55 6.42709 $w=2.58e-07 $l=1.45e-07 $layer=LI1_cond $X=9.485 $Y=2.09
+ $X2=9.34 $Y2=2.09
r229 50 72 7.85757 $w=3.28e-07 $l=2.25e-07 $layer=LI1_cond $X=7.225 $Y=1.995
+ $X2=7 $Y2=1.995
r230 50 51 145.28 $w=1.7e-07 $l=1.7e-07 $layer=licon1_POLY $count=1 $X=7.225
+ $Y=1.995 $X2=7.225 $Y2=1.995
r231 47 71 5.77842 $w=1.7e-07 $l=2e-07 $layer=LI1_cond $X=6.915 $Y=1.76
+ $X2=6.915 $Y2=1.96
r232 46 66 0.716491 $w=1.7e-07 $l=8.5e-08 $layer=LI1_cond $X=6.915 $Y=1.01
+ $X2=6.915 $Y2=0.925
r233 46 47 48.9305 $w=1.68e-07 $l=7.5e-07 $layer=LI1_cond $X=6.915 $Y=1.01
+ $X2=6.915 $Y2=1.76
r234 42 66 19.5722 $w=1.68e-07 $l=3e-07 $layer=LI1_cond $X=6.615 $Y=0.925
+ $X2=6.915 $Y2=0.925
r235 42 44 11.3498 $w=3.28e-07 $l=3.25e-07 $layer=LI1_cond $X=6.615 $Y=0.84
+ $X2=6.615 $Y2=0.515
r236 38 51 40.2181 $w=3.3e-07 $l=2.3e-07 $layer=POLY_cond $X=7.225 $Y=1.765
+ $X2=7.225 $Y2=1.995
r237 38 39 13.5877 $w=2.4e-07 $l=9.08295e-08 $layer=POLY_cond $X=7.225 $Y=1.765
+ $X2=7.26 $Y2=1.69
r238 36 85 433.287 $w=1.5e-07 $l=8.45e-07 $layer=POLY_cond $X=12.36 $Y=0.58
+ $X2=12.36 $Y2=1.425
r239 32 86 274.04 $w=1.8e-07 $l=7.05e-07 $layer=POLY_cond $X=12.23 $Y=2.46
+ $X2=12.23 $Y2=1.755
r240 28 83 192.411 $w=1.8e-07 $l=4.95e-07 $layer=POLY_cond $X=9.375 $Y=2.75
+ $X2=9.375 $Y2=2.255
r241 24 82 82.0426 $w=1.5e-07 $l=1.6e-07 $layer=POLY_cond $X=9.25 $Y=1.765
+ $X2=9.25 $Y2=1.925
r242 23 41 20.4101 $w=1.5e-07 $l=7.5e-08 $layer=POLY_cond $X=8.44 $Y=1.69
+ $X2=8.365 $Y2=1.69
r243 22 24 26.9307 $w=1.5e-07 $l=1.06066e-07 $layer=POLY_cond $X=9.175 $Y=1.69
+ $X2=9.25 $Y2=1.765
r244 22 23 376.883 $w=1.5e-07 $l=7.35e-07 $layer=POLY_cond $X=9.175 $Y=1.69
+ $X2=8.44 $Y2=1.69
r245 18 41 5.30422 $w=1.5e-07 $l=7.5e-08 $layer=POLY_cond $X=8.365 $Y=1.615
+ $X2=8.365 $Y2=1.69
r246 18 20 471.745 $w=1.5e-07 $l=9.2e-07 $layer=POLY_cond $X=8.365 $Y=1.615
+ $X2=8.365 $Y2=0.695
r247 17 40 23.6879 $w=1.5e-07 $l=9e-08 $layer=POLY_cond $X=7.99 $Y=1.69 $X2=7.9
+ $Y2=1.69
r248 16 41 20.4101 $w=1.5e-07 $l=7.5e-08 $layer=POLY_cond $X=8.29 $Y=1.69
+ $X2=8.365 $Y2=1.69
r249 16 17 153.83 $w=1.5e-07 $l=3e-07 $layer=POLY_cond $X=8.29 $Y=1.69 $X2=7.99
+ $Y2=1.69
r250 13 40 2.7459 $w=1.8e-07 $l=7.5e-08 $layer=POLY_cond $X=7.9 $Y=1.765 $X2=7.9
+ $Y2=1.69
r251 13 15 170.039 $w=1.8e-07 $l=6.35e-07 $layer=POLY_cond $X=7.9 $Y=1.765
+ $X2=7.9 $Y2=2.4
r252 12 39 12.1617 $w=1.5e-07 $l=2e-07 $layer=POLY_cond $X=7.46 $Y=1.69 $X2=7.26
+ $Y2=1.69
r253 11 40 23.6879 $w=1.5e-07 $l=9e-08 $layer=POLY_cond $X=7.81 $Y=1.69 $X2=7.9
+ $Y2=1.69
r254 11 12 179.468 $w=1.5e-07 $l=3.5e-07 $layer=POLY_cond $X=7.81 $Y=1.69
+ $X2=7.46 $Y2=1.69
r255 7 39 13.5877 $w=2.4e-07 $l=1.58114e-07 $layer=POLY_cond $X=7.385 $Y=1.615
+ $X2=7.26 $Y2=1.69
r256 7 9 448.67 $w=1.5e-07 $l=8.75e-07 $layer=POLY_cond $X=7.385 $Y=1.615
+ $X2=7.385 $Y2=0.74
r257 2 69 600 $w=1.7e-07 $l=2.38118e-07 $layer=licon1_PDIFF $count=1 $X=6.64
+ $Y=1.78 $X2=6.775 $Y2=1.96
r258 1 44 91 $w=1.7e-07 $l=2.03286e-07 $layer=licon1_NDIFF $count=2 $X=6.475
+ $Y=0.37 $X2=6.615 $Y2=0.515
.ends

.subckt PM_SKY130_FD_SC_MS__SEDFXTP_1%A_1910_71# 1 2 9 13 19 21 23 24 28 31 32
+ 34 35 41 45 52 55
c113 34 0 6.25838e-20 $X=11.22 $Y=1.36
r114 47 48 5.82061 $w=2.62e-07 $l=1.25e-07 $layer=LI1_cond $X=10.595 $Y=1.36
+ $X2=10.72 $Y2=1.36
r115 43 45 7.83661 $w=2.48e-07 $l=1.7e-07 $layer=LI1_cond $X=10.55 $Y=2.095
+ $X2=10.72 $Y2=2.095
r116 39 52 13.1146 $w=3.3e-07 $l=7.5e-08 $layer=POLY_cond $X=9.73 $Y=1.32
+ $X2=9.805 $Y2=1.32
r117 39 49 18.3604 $w=3.3e-07 $l=1.05e-07 $layer=POLY_cond $X=9.73 $Y=1.32
+ $X2=9.625 $Y2=1.32
r118 38 41 8.69362 $w=2.58e-07 $l=1.65e-07 $layer=LI1_cond $X=9.73 $Y=1.32
+ $X2=9.895 $Y2=1.32
r119 38 39 145.28 $w=1.7e-07 $l=1.7e-07 $layer=licon1_POLY $count=1 $X=9.73
+ $Y=1.32 $X2=9.73 $Y2=1.32
r120 35 55 12.8191 $w=2.82e-07 $l=7.5e-08 $layer=POLY_cond $X=11.22 $Y=1.317
+ $X2=11.295 $Y2=1.317
r121 34 35 72.64 $w=1.7e-07 $l=3.4e-07 $layer=licon1_POLY $count=2 $X=11.22
+ $Y=1.36 $X2=11.22 $Y2=1.36
r122 32 48 3.69502 $w=3.3e-07 $l=8.5e-08 $layer=LI1_cond $X=10.805 $Y=1.36
+ $X2=10.72 $Y2=1.36
r123 32 34 14.4928 $w=3.28e-07 $l=4.15e-07 $layer=LI1_cond $X=10.805 $Y=1.36
+ $X2=11.22 $Y2=1.36
r124 31 45 2.99516 $w=1.7e-07 $l=1.25e-07 $layer=LI1_cond $X=10.72 $Y=1.97
+ $X2=10.72 $Y2=2.095
r125 30 48 3.26844 $w=1.7e-07 $l=1.65e-07 $layer=LI1_cond $X=10.72 $Y=1.525
+ $X2=10.72 $Y2=1.36
r126 30 31 29.0321 $w=1.68e-07 $l=4.45e-07 $layer=LI1_cond $X=10.72 $Y=1.525
+ $X2=10.72 $Y2=1.97
r127 26 47 3.26844 $w=1.7e-07 $l=1.65e-07 $layer=LI1_cond $X=10.595 $Y=1.195
+ $X2=10.595 $Y2=1.36
r128 26 28 25.1176 $w=1.68e-07 $l=3.85e-07 $layer=LI1_cond $X=10.595 $Y=1.195
+ $X2=10.595 $Y2=0.81
r129 24 47 5.45986 $w=2.62e-07 $l=1.18427e-07 $layer=LI1_cond $X=10.51 $Y=1.28
+ $X2=10.595 $Y2=1.36
r130 24 41 40.123 $w=1.68e-07 $l=6.15e-07 $layer=LI1_cond $X=10.51 $Y=1.28
+ $X2=9.895 $Y2=1.28
r131 21 55 33.3298 $w=2.82e-07 $l=2.88468e-07 $layer=POLY_cond $X=11.49 $Y=1.11
+ $X2=11.295 $Y2=1.317
r132 21 23 134.96 $w=1.5e-07 $l=4.2e-07 $layer=POLY_cond $X=11.49 $Y=1.11
+ $X2=11.49 $Y2=0.69
r133 17 55 13.2911 $w=1.8e-07 $l=2.08e-07 $layer=POLY_cond $X=11.295 $Y=1.525
+ $X2=11.295 $Y2=1.317
r134 17 19 363.444 $w=1.8e-07 $l=9.35e-07 $layer=POLY_cond $X=11.295 $Y=1.525
+ $X2=11.295 $Y2=2.46
r135 11 52 16.9318 $w=1.8e-07 $l=1.65e-07 $layer=POLY_cond $X=9.805 $Y=1.485
+ $X2=9.805 $Y2=1.32
r136 11 13 491.718 $w=1.8e-07 $l=1.265e-06 $layer=POLY_cond $X=9.805 $Y=1.485
+ $X2=9.805 $Y2=2.75
r137 7 49 21.2229 $w=1.5e-07 $l=1.65e-07 $layer=POLY_cond $X=9.625 $Y=1.155
+ $X2=9.625 $Y2=1.32
r138 7 9 235.872 $w=1.5e-07 $l=4.6e-07 $layer=POLY_cond $X=9.625 $Y=1.155
+ $X2=9.625 $Y2=0.695
r139 2 43 600 $w=1.7e-07 $l=2.01494e-07 $layer=licon1_PDIFF $count=1 $X=10.415
+ $Y=1.99 $X2=10.55 $Y2=2.135
r140 1 28 182 $w=1.7e-07 $l=5.05173e-07 $layer=licon1_NDIFF $count=1 $X=10.455
+ $Y=0.37 $X2=10.595 $Y2=0.81
.ends

.subckt PM_SKY130_FD_SC_MS__SEDFXTP_1%A_1688_97# 1 2 9 13 17 23 27 28 29 31 32
+ 33
r104 32 37 40.6903 $w=3.3e-07 $l=1.65e-07 $layer=POLY_cond $X=10.3 $Y=1.665
+ $X2=10.3 $Y2=1.83
r105 32 36 46.2115 $w=3.3e-07 $l=1.65e-07 $layer=POLY_cond $X=10.3 $Y=1.665
+ $X2=10.3 $Y2=1.5
r106 31 33 8.69362 $w=2.58e-07 $l=1.65e-07 $layer=LI1_cond $X=10.3 $Y=1.665
+ $X2=10.135 $Y2=1.665
r107 31 32 145.28 $w=1.7e-07 $l=1.7e-07 $layer=licon1_POLY $count=1 $X=10.3
+ $Y=1.665 $X2=10.3 $Y2=1.665
r108 28 29 8.63679 $w=3.28e-07 $l=1.7e-07 $layer=LI1_cond $X=9.075 $Y=2.39
+ $X2=9.075 $Y2=2.56
r109 26 27 1.34256 $w=1.7e-07 $l=1.3e-07 $layer=LI1_cond $X=9.005 $Y=1.705
+ $X2=8.875 $Y2=1.705
r110 26 33 73.7219 $w=1.68e-07 $l=1.13e-06 $layer=LI1_cond $X=9.005 $Y=1.705
+ $X2=10.135 $Y2=1.705
r111 23 29 6.63528 $w=3.28e-07 $l=1.9e-07 $layer=LI1_cond $X=9.15 $Y=2.75
+ $X2=9.15 $Y2=2.56
r112 19 27 5.16603 $w=1.7e-07 $l=1.05119e-07 $layer=LI1_cond $X=8.92 $Y=1.79
+ $X2=8.875 $Y2=1.705
r113 19 28 39.1444 $w=1.68e-07 $l=6e-07 $layer=LI1_cond $X=8.92 $Y=1.79 $X2=8.92
+ $Y2=2.39
r114 15 27 5.16603 $w=1.7e-07 $l=1.05119e-07 $layer=LI1_cond $X=8.83 $Y=1.62
+ $X2=8.875 $Y2=1.705
r115 15 17 56.107 $w=1.68e-07 $l=8.6e-07 $layer=LI1_cond $X=8.83 $Y=1.62
+ $X2=8.83 $Y2=0.76