* File: sky130_fd_sc_ms__a221oi_4.pex.spice
* Created: Fri Aug 28 17:01:24 2020
* Program "Calibre xRC"
* Version "v2018.4_34.26"
* Nominal Temperature: 27C
* Circuit Temperature: 27C
* 
.subckt PM_SKY130_FD_SC_MS__A221OI_4%C1 3 7 11 15 19 23 27 31 33 34 35 50 51
r79 51 52 9.58523 $w=3.52e-07 $l=7e-08 $layer=POLY_cond $X=1.845 $Y=1.5
+ $X2=1.915 $Y2=1.5
r80 49 51 18.4858 $w=3.52e-07 $l=1.35e-07 $layer=POLY_cond $X=1.71 $Y=1.5
+ $X2=1.845 $Y2=1.5
r81 49 50 72.64 $w=1.7e-07 $l=3.4e-07 $layer=licon1_POLY $count=2 $X=1.71
+ $Y=1.515 $X2=1.71 $Y2=1.515
r82 47 49 30.8097 $w=3.52e-07 $l=2.25e-07 $layer=POLY_cond $X=1.485 $Y=1.5
+ $X2=1.71 $Y2=1.5
r83 46 47 12.3239 $w=3.52e-07 $l=9e-08 $layer=POLY_cond $X=1.395 $Y=1.5
+ $X2=1.485 $Y2=1.5
r84 45 46 46.5568 $w=3.52e-07 $l=3.4e-07 $layer=POLY_cond $X=1.055 $Y=1.5
+ $X2=1.395 $Y2=1.5
r85 44 45 15.0625 $w=3.52e-07 $l=1.1e-07 $layer=POLY_cond $X=0.945 $Y=1.5
+ $X2=1.055 $Y2=1.5
r86 42 44 34.9176 $w=3.52e-07 $l=2.55e-07 $layer=POLY_cond $X=0.69 $Y=1.5
+ $X2=0.945 $Y2=1.5
r87 42 43 72.64 $w=1.7e-07 $l=3.4e-07 $layer=licon1_POLY $count=2 $X=0.69
+ $Y=1.515 $X2=0.69 $Y2=1.515
r88 40 42 8.90057 $w=3.52e-07 $l=6.5e-08 $layer=POLY_cond $X=0.625 $Y=1.5
+ $X2=0.69 $Y2=1.5
r89 39 40 17.8011 $w=3.52e-07 $l=1.3e-07 $layer=POLY_cond $X=0.495 $Y=1.5
+ $X2=0.625 $Y2=1.5
r90 35 50 0.80403 $w=4.28e-07 $l=3e-08 $layer=LI1_cond $X=1.68 $Y=1.565 $X2=1.71
+ $Y2=1.565
r91 34 35 12.8645 $w=4.28e-07 $l=4.8e-07 $layer=LI1_cond $X=1.2 $Y=1.565
+ $X2=1.68 $Y2=1.565
r92 33 34 12.8645 $w=4.28e-07 $l=4.8e-07 $layer=LI1_cond $X=0.72 $Y=1.565
+ $X2=1.2 $Y2=1.565
r93 33 43 0.80403 $w=4.28e-07 $l=3e-08 $layer=LI1_cond $X=0.72 $Y=1.565 $X2=0.69
+ $Y2=1.565
r94 29 52 22.7654 $w=1.5e-07 $l=1.8e-07 $layer=POLY_cond $X=1.915 $Y=1.32
+ $X2=1.915 $Y2=1.5
r95 29 31 297.404 $w=1.5e-07 $l=5.8e-07 $layer=POLY_cond $X=1.915 $Y=1.32
+ $X2=1.915 $Y2=0.74
r96 25 51 18.4407 $w=1.8e-07 $l=1.8e-07 $layer=POLY_cond $X=1.845 $Y=1.68
+ $X2=1.845 $Y2=1.5
r97 25 27 279.871 $w=1.8e-07 $l=7.2e-07 $layer=POLY_cond $X=1.845 $Y=1.68
+ $X2=1.845 $Y2=2.4
r98 21 47 22.7654 $w=1.5e-07 $l=1.8e-07 $layer=POLY_cond $X=1.485 $Y=1.32
+ $X2=1.485 $Y2=1.5
r99 21 23 297.404 $w=1.5e-07 $l=5.8e-07 $layer=POLY_cond $X=1.485 $Y=1.32
+ $X2=1.485 $Y2=0.74
r100 17 46 18.4407 $w=1.8e-07 $l=1.8e-07 $layer=POLY_cond $X=1.395 $Y=1.68
+ $X2=1.395 $Y2=1.5
r101 17 19 279.871 $w=1.8e-07 $l=7.2e-07 $layer=POLY_cond $X=1.395 $Y=1.68
+ $X2=1.395 $Y2=2.4
r102 13 45 22.7654 $w=1.5e-07 $l=1.8e-07 $layer=POLY_cond $X=1.055 $Y=1.32
+ $X2=1.055 $Y2=1.5
r103 13 15 297.404 $w=1.5e-07 $l=5.8e-07 $layer=POLY_cond $X=1.055 $Y=1.32
+ $X2=1.055 $Y2=0.74
r104 9 44 18.4407 $w=1.8e-07 $l=1.8e-07 $layer=POLY_cond $X=0.945 $Y=1.68
+ $X2=0.945 $Y2=1.5
r105 9 11 279.871 $w=1.8e-07 $l=7.2e-07 $layer=POLY_cond $X=0.945 $Y=1.68
+ $X2=0.945 $Y2=2.4
r106 5 40 22.7654 $w=1.5e-07 $l=1.8e-07 $layer=POLY_cond $X=0.625 $Y=1.32
+ $X2=0.625 $Y2=1.5
r107 5 7 297.404 $w=1.5e-07 $l=5.8e-07 $layer=POLY_cond $X=0.625 $Y=1.32
+ $X2=0.625 $Y2=0.74
r108 1 39 18.4407 $w=1.8e-07 $l=1.8e-07 $layer=POLY_cond $X=0.495 $Y=1.68
+ $X2=0.495 $Y2=1.5
r109 1 3 279.871 $w=1.8e-07 $l=7.2e-07 $layer=POLY_cond $X=0.495 $Y=1.68
+ $X2=0.495 $Y2=2.4
.ends

.subckt PM_SKY130_FD_SC_MS__A221OI_4%A2 3 7 11 15 19 23 27 29 31 32 33 34 35 36
+ 56 57
c82 56 0 2.37318e-19 $X=4.1 $Y=1.515
c83 23 0 6.346e-20 $X=3.905 $Y=2.4
r84 57 58 7.93713 $w=3.34e-07 $l=5.5e-08 $layer=POLY_cond $X=4.3 $Y=1.56
+ $X2=4.355 $Y2=1.56
r85 55 57 28.8623 $w=3.34e-07 $l=2e-07 $layer=POLY_cond $X=4.1 $Y=1.56 $X2=4.3
+ $Y2=1.56
r86 55 56 145.28 $w=1.7e-07 $l=1.7e-07 $layer=licon1_POLY $count=1 $X=4.1
+ $Y=1.515 $X2=4.1 $Y2=1.515
r87 50 52 15.8743 $w=3.34e-07 $l=1.1e-07 $layer=POLY_cond $X=3.76 $Y=1.56
+ $X2=3.87 $Y2=1.56
r88 50 51 145.28 $w=1.7e-07 $l=1.7e-07 $layer=licon1_POLY $count=1 $X=3.76
+ $Y=1.515 $X2=3.76 $Y2=1.515
r89 45 47 2.88623 $w=3.34e-07 $l=2e-08 $layer=POLY_cond $X=3.42 $Y=1.56 $X2=3.44
+ $Y2=1.56
r90 45 46 72.64 $w=1.7e-07 $l=3.4e-07 $layer=licon1_POLY $count=2 $X=3.42
+ $Y=1.515 $X2=3.42 $Y2=1.515
r91 43 45 59.1677 $w=3.34e-07 $l=4.1e-07 $layer=POLY_cond $X=3.01 $Y=1.56
+ $X2=3.42 $Y2=1.56
r92 36 56 0.658539 $w=3.48e-07 $l=2e-08 $layer=LI1_cond $X=4.08 $Y=1.605 $X2=4.1
+ $Y2=1.605
r93 36 51 10.5366 $w=3.48e-07 $l=3.2e-07 $layer=LI1_cond $X=4.08 $Y=1.605
+ $X2=3.76 $Y2=1.605
r94 35 51 5.26831 $w=3.48e-07 $l=1.6e-07 $layer=LI1_cond $X=3.6 $Y=1.605
+ $X2=3.76 $Y2=1.605
r95 35 46 5.92685 $w=3.48e-07 $l=1.8e-07 $layer=LI1_cond $X=3.6 $Y=1.605
+ $X2=3.42 $Y2=1.605
r96 34 46 9.87808 $w=3.48e-07 $l=3e-07 $layer=LI1_cond $X=3.12 $Y=1.605 $X2=3.42
+ $Y2=1.605
r97 33 34 15.8049 $w=3.48e-07 $l=4.8e-07 $layer=LI1_cond $X=2.64 $Y=1.605
+ $X2=3.12 $Y2=1.605
r98 32 33 15.8049 $w=3.48e-07 $l=4.8e-07 $layer=LI1_cond $X=2.16 $Y=1.605
+ $X2=2.64 $Y2=1.605
r99 29 58 17.2128 $w=1.8e-07 $l=2.1e-07 $layer=POLY_cond $X=4.355 $Y=1.77
+ $X2=4.355 $Y2=1.56
r100 29 31 168.7 $w=1.8e-07 $l=6.3e-07 $layer=POLY_cond $X=4.355 $Y=1.77
+ $X2=4.355 $Y2=2.4
r101 25 57 21.5099 $w=1.5e-07 $l=2.1e-07 $layer=POLY_cond $X=4.3 $Y=1.35 $X2=4.3
+ $Y2=1.56
r102 25 27 312.787 $w=1.5e-07 $l=6.1e-07 $layer=POLY_cond $X=4.3 $Y=1.35 $X2=4.3
+ $Y2=0.74
r103 21 55 28.1407 $w=3.34e-07 $l=1.95e-07 $layer=POLY_cond $X=3.905 $Y=1.56
+ $X2=4.1 $Y2=1.56
r104 21 52 5.0509 $w=3.34e-07 $l=3.5e-08 $layer=POLY_cond $X=3.905 $Y=1.56
+ $X2=3.87 $Y2=1.56
r105 21 23 279.871 $w=1.8e-07 $l=7.2e-07 $layer=POLY_cond $X=3.905 $Y=1.68
+ $X2=3.905 $Y2=2.4
r106 17 52 21.5099 $w=1.5e-07 $l=2.1e-07 $layer=POLY_cond $X=3.87 $Y=1.35
+ $X2=3.87 $Y2=1.56
r107 17 19 312.787 $w=1.5e-07 $l=6.1e-07 $layer=POLY_cond $X=3.87 $Y=1.35
+ $X2=3.87 $Y2=0.74
r108 13 50 44.015 $w=3.34e-07 $l=3.05e-07 $layer=POLY_cond $X=3.455 $Y=1.56
+ $X2=3.76 $Y2=1.56
r109 13 47 2.16467 $w=3.34e-07 $l=1.5e-08 $layer=POLY_cond $X=3.455 $Y=1.56
+ $X2=3.44 $Y2=1.56
r110 13 15 279.871 $w=1.8e-07 $l=7.2e-07 $layer=POLY_cond $X=3.455 $Y=1.68
+ $X2=3.455 $Y2=2.4
r111 9 47 21.5099 $w=1.5e-07 $l=2.1e-07 $layer=POLY_cond $X=3.44 $Y=1.35
+ $X2=3.44 $Y2=1.56
r112 9 11 312.787 $w=1.5e-07 $l=6.1e-07 $layer=POLY_cond $X=3.44 $Y=1.35
+ $X2=3.44 $Y2=0.74
r113 5 43 21.5099 $w=1.5e-07 $l=2.1e-07 $layer=POLY_cond $X=3.01 $Y=1.35
+ $X2=3.01 $Y2=1.56
r114 5 7 312.787 $w=1.5e-07 $l=6.1e-07 $layer=POLY_cond $X=3.01 $Y=1.35 $X2=3.01
+ $Y2=0.74
r115 1 43 0.721557 $w=3.34e-07 $l=5e-09 $layer=POLY_cond $X=3.005 $Y=1.56
+ $X2=3.01 $Y2=1.56
r116 1 3 279.871 $w=1.8e-07 $l=7.2e-07 $layer=POLY_cond $X=3.005 $Y=1.68
+ $X2=3.005 $Y2=2.4
.ends

.subckt PM_SKY130_FD_SC_MS__A221OI_4%A1 3 7 11 15 19 23 27 31 33 34 35 36 55
c97 55 0 1.73858e-19 $X=6.02 $Y=1.515
c98 36 0 1.96092e-19 $X=6 $Y=1.665
c99 23 0 5.23269e-20 $X=5.705 $Y=2.4
c100 7 0 6.346e-20 $X=4.805 $Y=2.4
r101 55 56 47.0401 $w=3.74e-07 $l=3.65e-07 $layer=POLY_cond $X=6.02 $Y=1.515
+ $X2=6.385 $Y2=1.515
r102 53 55 9.02139 $w=3.74e-07 $l=7e-08 $layer=POLY_cond $X=5.95 $Y=1.515
+ $X2=6.02 $Y2=1.515
r103 53 54 145.28 $w=1.7e-07 $l=1.7e-07 $layer=licon1_POLY $count=1 $X=5.95
+ $Y=1.515 $X2=5.95 $Y2=1.515
r104 51 53 31.5749 $w=3.74e-07 $l=2.45e-07 $layer=POLY_cond $X=5.705 $Y=1.515
+ $X2=5.95 $Y2=1.515
r105 50 51 14.8209 $w=3.74e-07 $l=1.15e-07 $layer=POLY_cond $X=5.59 $Y=1.515
+ $X2=5.705 $Y2=1.515
r106 48 50 11.5989 $w=3.74e-07 $l=9e-08 $layer=POLY_cond $X=5.5 $Y=1.515
+ $X2=5.59 $Y2=1.515
r107 48 49 145.28 $w=1.7e-07 $l=1.7e-07 $layer=licon1_POLY $count=1 $X=5.5
+ $Y=1.515 $X2=5.5 $Y2=1.515
r108 45 49 11.1952 $w=3.48e-07 $l=3.4e-07 $layer=LI1_cond $X=5.16 $Y=1.605
+ $X2=5.5 $Y2=1.605
r109 44 45 72.64 $w=1.7e-07 $l=3.4e-07 $layer=licon1_POLY $count=2 $X=5.16
+ $Y=1.515 $X2=5.16 $Y2=1.515
r110 36 54 1.64635 $w=3.48e-07 $l=5e-08 $layer=LI1_cond $X=6 $Y=1.605 $X2=5.95
+ $Y2=1.605
r111 35 54 14.1586 $w=3.48e-07 $l=4.3e-07 $layer=LI1_cond $X=5.52 $Y=1.605
+ $X2=5.95 $Y2=1.605
r112 35 49 0.658539 $w=3.48e-07 $l=2e-08 $layer=LI1_cond $X=5.52 $Y=1.605
+ $X2=5.5 $Y2=1.605
r113 34 45 3.95123 $w=3.48e-07 $l=1.2e-07 $layer=LI1_cond $X=5.04 $Y=1.605
+ $X2=5.16 $Y2=1.605
r114 33 34 15.8049 $w=3.48e-07 $l=4.8e-07 $layer=LI1_cond $X=4.56 $Y=1.605
+ $X2=5.04 $Y2=1.605
r115 29 56 19.8678 $w=1.8e-07 $l=1.95e-07 $layer=POLY_cond $X=6.385 $Y=1.71
+ $X2=6.385 $Y2=1.515
r116 29 31 268.21 $w=1.8e-07 $l=6.9e-07 $layer=POLY_cond $X=6.385 $Y=1.71
+ $X2=6.385 $Y2=2.4
r117 25 55 24.2268 $w=1.5e-07 $l=1.95e-07 $layer=POLY_cond $X=6.02 $Y=1.32
+ $X2=6.02 $Y2=1.515
r118 25 27 297.404 $w=1.5e-07 $l=5.8e-07 $layer=POLY_cond $X=6.02 $Y=1.32
+ $X2=6.02 $Y2=0.74
r119 21 51 19.8678 $w=1.8e-07 $l=1.95e-07 $layer=POLY_cond $X=5.705 $Y=1.71
+ $X2=5.705 $Y2=1.515
r120 21 23 268.21 $w=1.8e-07 $l=6.9e-07 $layer=POLY_cond $X=5.705 $Y=1.71
+ $X2=5.705 $Y2=2.4
r121 17 50 24.2268 $w=1.5e-07 $l=1.95e-07 $layer=POLY_cond $X=5.59 $Y=1.32
+ $X2=5.59 $Y2=1.515
r122 17 19 297.404 $w=1.5e-07 $l=5.8e-07 $layer=POLY_cond $X=5.59 $Y=1.32
+ $X2=5.59 $Y2=0.74
r123 13 48 31.5749 $w=3.74e-07 $l=2.45e-07 $layer=POLY_cond $X=5.255 $Y=1.515
+ $X2=5.5 $Y2=1.515
r124 13 44 12.2433 $w=3.74e-07 $l=9.5e-08 $layer=POLY_cond $X=5.255 $Y=1.515
+ $X2=5.16 $Y2=1.515
r125 13 15 279.871 $w=1.8e-07 $l=7.2e-07 $layer=POLY_cond $X=5.255 $Y=1.68
+ $X2=5.255 $Y2=2.4
r126 9 44 24.2268 $w=1.5e-07 $l=1.95e-07 $layer=POLY_cond $X=5.16 $Y=1.32
+ $X2=5.16 $Y2=1.515
r127 9 11 297.404 $w=1.5e-07 $l=5.8e-07 $layer=POLY_cond $X=5.16 $Y=1.32
+ $X2=5.16 $Y2=0.74
r128 5 44 45.7513 $w=3.74e-07 $l=3.55e-07 $layer=POLY_cond $X=4.805 $Y=1.515
+ $X2=5.16 $Y2=1.515
r129 5 41 9.66578 $w=3.74e-07 $l=7.5e-08 $layer=POLY_cond $X=4.805 $Y=1.515
+ $X2=4.73 $Y2=1.515
r130 5 7 279.871 $w=1.8e-07 $l=7.2e-07 $layer=POLY_cond $X=4.805 $Y=1.68
+ $X2=4.805 $Y2=2.4
r131 1 41 24.2268 $w=1.5e-07 $l=1.95e-07 $layer=POLY_cond $X=4.73 $Y=1.32
+ $X2=4.73 $Y2=1.515
r132 1 3 297.404 $w=1.5e-07 $l=5.8e-07 $layer=POLY_cond $X=4.73 $Y=1.32 $X2=4.73
+ $Y2=0.74
.ends

.subckt PM_SKY130_FD_SC_MS__A221OI_4%B1 3 7 11 15 19 23 27 31 33 34 35 36 53 54
+ 60 62 71
c88 71 0 5.23269e-20 $X=6.73 $Y=1.565
c89 54 0 2.58775e-19 $X=8.185 $Y=1.515
c90 53 0 6.47831e-20 $X=7.93 $Y=1.515
r91 60 62 0.402015 $w=4.28e-07 $l=1.5e-08 $layer=LI1_cond $X=6.945 $Y=1.565
+ $X2=6.96 $Y2=1.565
r92 54 55 11.192 $w=3.23e-07 $l=7.5e-08 $layer=POLY_cond $X=8.185 $Y=1.515
+ $X2=8.26 $Y2=1.515
r93 52 54 38.0526 $w=3.23e-07 $l=2.55e-07 $layer=POLY_cond $X=7.93 $Y=1.515
+ $X2=8.185 $Y2=1.515
r94 52 53 72.64 $w=1.7e-07 $l=3.4e-07 $layer=licon1_POLY $count=2 $X=7.93
+ $Y=1.515 $X2=7.93 $Y2=1.515
r95 50 52 14.9226 $w=3.23e-07 $l=1e-07 $layer=POLY_cond $X=7.83 $Y=1.515
+ $X2=7.93 $Y2=1.515
r96 49 50 14.1765 $w=3.23e-07 $l=9.5e-08 $layer=POLY_cond $X=7.735 $Y=1.515
+ $X2=7.83 $Y2=1.515
r97 48 49 49.9907 $w=3.23e-07 $l=3.35e-07 $layer=POLY_cond $X=7.4 $Y=1.515
+ $X2=7.735 $Y2=1.515
r98 47 48 17.161 $w=3.23e-07 $l=1.15e-07 $layer=POLY_cond $X=7.285 $Y=1.515
+ $X2=7.4 $Y2=1.515
r99 46 47 47.0062 $w=3.23e-07 $l=3.15e-07 $layer=POLY_cond $X=6.97 $Y=1.515
+ $X2=7.285 $Y2=1.515
r100 44 46 8.95356 $w=3.23e-07 $l=6e-08 $layer=POLY_cond $X=6.91 $Y=1.515
+ $X2=6.97 $Y2=1.515
r101 42 44 11.192 $w=3.23e-07 $l=7.5e-08 $layer=POLY_cond $X=6.835 $Y=1.515
+ $X2=6.91 $Y2=1.515
r102 36 53 0.26801 $w=4.28e-07 $l=1e-08 $layer=LI1_cond $X=7.92 $Y=1.565
+ $X2=7.93 $Y2=1.565
r103 35 36 12.8645 $w=4.28e-07 $l=4.8e-07 $layer=LI1_cond $X=7.44 $Y=1.565
+ $X2=7.92 $Y2=1.565
r104 34 60 0.938035 $w=4.28e-07 $l=3.5e-08 $layer=LI1_cond $X=6.91 $Y=1.565
+ $X2=6.945 $Y2=1.565
r105 34 71 5.25701 $w=4.28e-07 $l=1.8e-07 $layer=LI1_cond $X=6.91 $Y=1.565
+ $X2=6.73 $Y2=1.565
r106 34 35 11.9264 $w=4.28e-07 $l=4.45e-07 $layer=LI1_cond $X=6.995 $Y=1.565
+ $X2=7.44 $Y2=1.565
r107 34 62 0.938035 $w=4.28e-07 $l=3.5e-08 $layer=LI1_cond $X=6.995 $Y=1.565
+ $X2=6.96 $Y2=1.565
r108 34 44 72.64 $w=1.7e-07 $l=3.4e-07 $layer=licon1_POLY $count=2 $X=6.91
+ $Y=1.515 $X2=6.91 $Y2=1.515
r109 33 71 8.23174 $w=3.48e-07 $l=2.5e-07 $layer=LI1_cond $X=6.48 $Y=1.605
+ $X2=6.73 $Y2=1.605
r110 29 55 20.7134 $w=1.5e-07 $l=1.65e-07 $layer=POLY_cond $X=8.26 $Y=1.35
+ $X2=8.26 $Y2=1.515
r111 29 31 312.787 $w=1.5e-07 $l=6.1e-07 $layer=POLY_cond $X=8.26 $Y=1.35
+ $X2=8.26 $Y2=0.74
r112 25 54 16.4327 $w=1.8e-07 $l=1.65e-07 $layer=POLY_cond $X=8.185 $Y=1.68
+ $X2=8.185 $Y2=1.515
r113 25 27 279.871 $w=1.8e-07 $l=7.2e-07 $layer=POLY_cond $X=8.185 $Y=1.68
+ $X2=8.185 $Y2=2.4
r114 21 50 20.7134 $w=1.5e-07 $l=1.65e-07 $layer=POLY_cond $X=7.83 $Y=1.35
+ $X2=7.83 $Y2=1.515
r115 21 23 312.787 $w=1.5e-07 $l=6.1e-07 $layer=POLY_cond $X=7.83 $Y=1.35
+ $X2=7.83 $Y2=0.74
r116 17 49 16.4327 $w=1.8e-07 $l=1.65e-07 $layer=POLY_cond $X=7.735 $Y=1.68
+ $X2=7.735 $Y2=1.515
r117 17 19 279.871 $w=1.8e-07 $l=7.2e-07 $layer=POLY_cond $X=7.735 $Y=1.68
+ $X2=7.735 $Y2=2.4
r118 13 48 20.7134 $w=1.5e-07 $l=1.65e-07 $layer=POLY_cond $X=7.4 $Y=1.35
+ $X2=7.4 $Y2=1.515
r119 13 15 312.787 $w=1.5e-07 $l=6.1e-07 $layer=POLY_cond $X=7.4 $Y=1.35 $X2=7.4
+ $Y2=0.74
r120 9 47 16.4327 $w=1.8e-07 $l=1.65e-07 $layer=POLY_cond $X=7.285 $Y=1.68
+ $X2=7.285 $Y2=1.515
r121 9 11 279.871 $w=1.8e-07 $l=7.2e-07 $layer=POLY_cond $X=7.285 $Y=1.68
+ $X2=7.285 $Y2=2.4
r122 5 46 20.7134 $w=1.5e-07 $l=1.65e-07 $layer=POLY_cond $X=6.97 $Y=1.35
+ $X2=6.97 $Y2=1.515
r123 5 7 312.787 $w=1.5e-07 $l=6.1e-07 $layer=POLY_cond $X=6.97 $Y=1.35 $X2=6.97
+ $Y2=0.74
r124 1 42 16.4327 $w=1.8e-07 $l=1.65e-07 $layer=POLY_cond $X=6.835 $Y=1.68
+ $X2=6.835 $Y2=1.515
r125 1 3 279.871 $w=1.8e-07 $l=7.2e-07 $layer=POLY_cond $X=6.835 $Y=1.68
+ $X2=6.835 $Y2=2.4
.ends

.subckt PM_SKY130_FD_SC_MS__A221OI_4%B2 3 7 11 15 19 23 25 27 30 32 33 34 35 52
c77 7 0 2.41835e-19 $X=8.69 $Y=0.74
c78 3 0 6.47831e-20 $X=8.635 $Y=2.4
r79 52 53 0.717262 $w=3.36e-07 $l=5e-09 $layer=POLY_cond $X=9.98 $Y=1.56
+ $X2=9.985 $Y2=1.56
r80 50 52 35.8631 $w=3.36e-07 $l=2.5e-07 $layer=POLY_cond $X=9.73 $Y=1.56
+ $X2=9.98 $Y2=1.56
r81 50 51 72.64 $w=1.7e-07 $l=3.4e-07 $layer=licon1_POLY $count=2 $X=9.73
+ $Y=1.515 $X2=9.73 $Y2=1.515
r82 48 50 25.8214 $w=3.36e-07 $l=1.8e-07 $layer=POLY_cond $X=9.55 $Y=1.56
+ $X2=9.73 $Y2=1.56
r83 43 44 72.64 $w=1.7e-07 $l=3.4e-07 $layer=licon1_POLY $count=2 $X=8.71
+ $Y=1.515 $X2=8.71 $Y2=1.515
r84 41 43 2.86905 $w=3.36e-07 $l=2e-08 $layer=POLY_cond $X=8.69 $Y=1.56 $X2=8.71
+ $Y2=1.56
r85 35 51 2.94811 $w=4.28e-07 $l=1.1e-07 $layer=LI1_cond $X=9.84 $Y=1.565
+ $X2=9.73 $Y2=1.565
r86 34 51 9.91637 $w=4.28e-07 $l=3.7e-07 $layer=LI1_cond $X=9.36 $Y=1.565
+ $X2=9.73 $Y2=1.565
r87 33 34 12.8645 $w=4.28e-07 $l=4.8e-07 $layer=LI1_cond $X=8.88 $Y=1.565
+ $X2=9.36 $Y2=1.565
r88 33 44 4.55617 $w=4.28e-07 $l=1.7e-07 $layer=LI1_cond $X=8.88 $Y=1.565
+ $X2=8.71 $Y2=1.565
r89 32 44 8.30831 $w=4.28e-07 $l=3.1e-07 $layer=LI1_cond $X=8.4 $Y=1.565
+ $X2=8.71 $Y2=1.565
r90 28 52 21.6522 $w=1.5e-07 $l=2.1e-07 $layer=POLY_cond $X=9.98 $Y=1.35
+ $X2=9.98 $Y2=1.56
r91 28 30 312.787 $w=1.5e-07 $l=6.1e-07 $layer=POLY_cond $X=9.98 $Y=1.35
+ $X2=9.98 $Y2=0.74
r92 25 53 17.3521 $w=1.8e-07 $l=2.1e-07 $layer=POLY_cond $X=9.985 $Y=1.77
+ $X2=9.985 $Y2=1.56
r93 25 27 168.7 $w=1.8e-07 $l=6.3e-07 $layer=POLY_cond $X=9.985 $Y=1.77
+ $X2=9.985 $Y2=2.4
r94 21 48 21.6522 $w=1.5e-07 $l=2.1e-07 $layer=POLY_cond $X=9.55 $Y=1.35
+ $X2=9.55 $Y2=1.56
r95 21 23 312.787 $w=1.5e-07 $l=6.1e-07 $layer=POLY_cond $X=9.55 $Y=1.35
+ $X2=9.55 $Y2=0.74
r96 17 48 2.15179 $w=3.36e-07 $l=1.5e-08 $layer=POLY_cond $X=9.535 $Y=1.56
+ $X2=9.55 $Y2=1.56
r97 17 46 59.5327 $w=3.36e-07 $l=4.15e-07 $layer=POLY_cond $X=9.535 $Y=1.56
+ $X2=9.12 $Y2=1.56
r98 17 19 279.871 $w=1.8e-07 $l=7.2e-07 $layer=POLY_cond $X=9.535 $Y=1.68
+ $X2=9.535 $Y2=2.4
r99 13 46 21.6522 $w=1.5e-07 $l=2.1e-07 $layer=POLY_cond $X=9.12 $Y=1.35
+ $X2=9.12 $Y2=1.56
r100 13 15 312.787 $w=1.5e-07 $l=6.1e-07 $layer=POLY_cond $X=9.12 $Y=1.35
+ $X2=9.12 $Y2=0.74
r101 9 46 5.02083 $w=3.36e-07 $l=3.5e-08 $layer=POLY_cond $X=9.085 $Y=1.56
+ $X2=9.12 $Y2=1.56
r102 9 43 53.7946 $w=3.36e-07 $l=3.75e-07 $layer=POLY_cond $X=9.085 $Y=1.56
+ $X2=8.71 $Y2=1.56
r103 9 11 279.871 $w=1.8e-07 $l=7.2e-07 $layer=POLY_cond $X=9.085 $Y=1.68
+ $X2=9.085 $Y2=2.4
r104 5 41 21.6522 $w=1.5e-07 $l=2.1e-07 $layer=POLY_cond $X=8.69 $Y=1.35
+ $X2=8.69 $Y2=1.56
r105 5 7 312.787 $w=1.5e-07 $l=6.1e-07 $layer=POLY_cond $X=8.69 $Y=1.35 $X2=8.69
+ $Y2=0.74
r106 1 41 7.88988 $w=3.36e-07 $l=5.5e-08 $layer=POLY_cond $X=8.635 $Y=1.56
+ $X2=8.69 $Y2=1.56
r107 1 3 279.871 $w=1.8e-07 $l=7.2e-07 $layer=POLY_cond $X=8.635 $Y=1.68
+ $X2=8.635 $Y2=2.4
.ends

.subckt PM_SKY130_FD_SC_MS__A221OI_4%Y 1 2 3 4 5 6 7 8 9 10 31 32 33 37 41 43 45
+ 49 53 55 59 61 65 74 75 76 77 78 79 80 82 83 85 86 87 88 89 90 91 102 121
c159 82 0 8.01953e-20 $X=8.045 $Y=0.95
r160 108 121 2.39067 $w=4.05e-07 $l=1.14782e-07 $layer=LI1_cond $X=0.23 $Y=1.18
+ $X2=0.3 $Y2=1.095
r161 90 91 17.0562 $w=2.48e-07 $l=3.7e-07 $layer=LI1_cond $X=0.23 $Y=2.405
+ $X2=0.23 $Y2=2.775
r162 89 90 19.361 $w=2.48e-07 $l=4.2e-07 $layer=LI1_cond $X=0.23 $Y=1.985
+ $X2=0.23 $Y2=2.405
r163 88 89 14.7513 $w=2.48e-07 $l=3.2e-07 $layer=LI1_cond $X=0.23 $Y=1.665
+ $X2=0.23 $Y2=1.985
r164 87 88 17.0562 $w=2.48e-07 $l=3.7e-07 $layer=LI1_cond $X=0.23 $Y=1.295
+ $X2=0.23 $Y2=1.665
r165 87 108 5.30124 $w=2.48e-07 $l=1.15e-07 $layer=LI1_cond $X=0.23 $Y=1.295
+ $X2=0.23 $Y2=1.18
r166 86 121 2.39067 $w=4.05e-07 $l=1.11018e-07 $layer=LI1_cond $X=0.24 $Y=1.01
+ $X2=0.3 $Y2=1.095
r167 85 86 10.9334 $w=3.88e-07 $l=3.7e-07 $layer=LI1_cond $X=0.3 $Y=0.555
+ $X2=0.3 $Y2=0.925
r168 85 102 1.18199 $w=3.88e-07 $l=4e-08 $layer=LI1_cond $X=0.3 $Y=0.555 $X2=0.3
+ $Y2=0.515
r169 82 83 4.12636 $w=4.08e-07 $l=1.3e-07 $layer=LI1_cond $X=8.045 $Y=0.975
+ $X2=7.915 $Y2=0.975
r170 79 80 8.63679 $w=3.28e-07 $l=1.7e-07 $layer=LI1_cond $X=6.36 $Y=1.055
+ $X2=6.53 $Y2=1.055
r171 73 91 5.9927 $w=2.48e-07 $l=1.3e-07 $layer=LI1_cond $X=0.23 $Y=2.905
+ $X2=0.23 $Y2=2.775
r172 72 83 25.4934 $w=3.28e-07 $l=7.3e-07 $layer=LI1_cond $X=7.185 $Y=1.015
+ $X2=7.915 $Y2=1.015
r173 72 80 22.8742 $w=3.28e-07 $l=6.55e-07 $layer=LI1_cond $X=7.185 $Y=1.015
+ $X2=6.53 $Y2=1.015
r174 68 78 5.66127 $w=1.7e-07 $l=9.5e-08 $layer=LI1_cond $X=5.9 $Y=1.175
+ $X2=5.805 $Y2=1.175
r175 68 79 30.0107 $w=1.68e-07 $l=4.6e-07 $layer=LI1_cond $X=5.9 $Y=1.175
+ $X2=6.36 $Y2=1.175
r176 63 78 0.945268 $w=1.9e-07 $l=8.5e-08 $layer=LI1_cond $X=5.805 $Y=1.09
+ $X2=5.805 $Y2=1.175
r177 63 65 16.6364 $w=1.88e-07 $l=2.85e-07 $layer=LI1_cond $X=5.805 $Y=1.09
+ $X2=5.805 $Y2=0.805
r178 62 77 5.66127 $w=1.7e-07 $l=9.5e-08 $layer=LI1_cond $X=5.04 $Y=1.175
+ $X2=4.945 $Y2=1.175
r179 61 78 5.66127 $w=1.7e-07 $l=9.5e-08 $layer=LI1_cond $X=5.71 $Y=1.175
+ $X2=5.805 $Y2=1.175
r180 61 62 43.7112 $w=1.68e-07 $l=6.7e-07 $layer=LI1_cond $X=5.71 $Y=1.175
+ $X2=5.04 $Y2=1.175
r181 57 77 0.945268 $w=1.9e-07 $l=8.5e-08 $layer=LI1_cond $X=4.945 $Y=1.09
+ $X2=4.945 $Y2=1.175
r182 57 59 16.6364 $w=1.88e-07 $l=2.85e-07 $layer=LI1_cond $X=4.945 $Y=1.09
+ $X2=4.945 $Y2=0.805
r183 56 76 7.02821 $w=1.7e-07 $l=1.43614e-07 $layer=LI1_cond $X=2.295 $Y=1.175
+ $X2=2.17 $Y2=1.135
r184 55 77 5.66127 $w=1.7e-07 $l=9.5e-08 $layer=LI1_cond $X=4.85 $Y=1.175
+ $X2=4.945 $Y2=1.175
r185 55 56 166.69 $w=1.68e-07 $l=2.555e-06 $layer=LI1_cond $X=4.85 $Y=1.175
+ $X2=2.295 $Y2=1.175
r186 51 76 0.00168595 $w=2.5e-07 $l=1.25e-07 $layer=LI1_cond $X=2.17 $Y=1.01
+ $X2=2.17 $Y2=1.135
r187 51 53 22.8184 $w=2.48e-07 $l=4.95e-07 $layer=LI1_cond $X=2.17 $Y=1.01
+ $X2=2.17 $Y2=0.515
r188 47 49 17.2866 $w=3.28e-07 $l=4.95e-07 $layer=LI1_cond $X=2.07 $Y=2.905
+ $X2=2.07 $Y2=2.41
r189 46 75 5.16603 $w=1.7e-07 $l=8.5e-08 $layer=LI1_cond $X=1.355 $Y=1.095
+ $X2=1.27 $Y2=1.095
r190 45 76 7.02821 $w=1.7e-07 $l=1.43614e-07 $layer=LI1_cond $X=2.045 $Y=1.095
+ $X2=2.17 $Y2=1.135
r191 45 46 45.016 $w=1.68e-07 $l=6.9e-07 $layer=LI1_cond $X=2.045 $Y=1.095
+ $X2=1.355 $Y2=1.095
r192 44 74 8.61065 $w=1.7e-07 $l=1.65e-07 $layer=LI1_cond $X=1.335 $Y=2.99
+ $X2=1.17 $Y2=2.99
r193 43 47 7.76618 $w=1.7e-07 $l=2.03101e-07 $layer=LI1_cond $X=1.905 $Y=2.99
+ $X2=2.07 $Y2=2.905
r194 43 44 37.1872 $w=1.68e-07 $l=5.7e-07 $layer=LI1_cond $X=1.905 $Y=2.99
+ $X2=1.335 $Y2=2.99
r195 39 75 1.34256 $w=1.7e-07 $l=8.5e-08 $layer=LI1_cond $X=1.27 $Y=1.01
+ $X2=1.27 $Y2=1.095
r196 39 41 32.2941 $w=1.68e-07 $l=4.95e-07 $layer=LI1_cond $X=1.27 $Y=1.01
+ $X2=1.27 $Y2=0.515
r197 35 74 0.89609 $w=3.3e-07 $l=8.5e-08 $layer=LI1_cond $X=1.17 $Y=2.905
+ $X2=1.17 $Y2=2.99
r198 35 37 17.2866 $w=3.28e-07 $l=4.95e-07 $layer=LI1_cond $X=1.17 $Y=2.905
+ $X2=1.17 $Y2=2.41
r199 34 121 4.59089 $w=1.7e-07 $l=1.95e-07 $layer=LI1_cond $X=0.495 $Y=1.095
+ $X2=0.3 $Y2=1.095
r200 33 75 5.16603 $w=1.7e-07 $l=8.5e-08 $layer=LI1_cond $X=1.185 $Y=1.095
+ $X2=1.27 $Y2=1.095
r201 33 34 45.016 $w=1.68e-07 $l=6.9e-07 $layer=LI1_cond $X=1.185 $Y=1.095
+ $X2=0.495 $Y2=1.095
r202 32 73 7.14316 $w=1.7e-07 $l=1.62019e-07 $layer=LI1_cond $X=0.355 $Y=2.99
+ $X2=0.23 $Y2=2.905
r203 31 74 8.61065 $w=1.7e-07 $l=1.65e-07 $layer=LI1_cond $X=1.005 $Y=2.99
+ $X2=1.17 $Y2=2.99
r204 31 32 42.4064 $w=1.68e-07 $l=6.5e-07 $layer=LI1_cond $X=1.005 $Y=2.99
+ $X2=0.355 $Y2=2.99
r205 10 49 300 $w=1.7e-07 $l=6.33916e-07 $layer=licon1_PDIFF $count=2 $X=1.935
+ $Y=1.84 $X2=2.07 $Y2=2.41
r206 9 37 300 $w=1.7e-07 $l=6.33916e-07 $layer=licon1_PDIFF $count=2 $X=1.035
+ $Y=1.84 $X2=1.17 $Y2=2.41
r207 8 91 400 $w=1.7e-07 $l=1.03562e-06 $layer=licon1_PDIFF $count=1 $X=0.145
+ $Y=1.84 $X2=0.27 $Y2=2.815
r208 8 89 400 $w=1.7e-07 $l=1.97864e-07 $layer=licon1_PDIFF $count=1 $X=0.145
+ $Y=1.84 $X2=0.27 $Y2=1.985
r209 7 82 182 $w=1.7e-07 $l=6.4622e-07 $layer=licon1_NDIFF $count=1 $X=7.905
+ $Y=0.37 $X2=8.045 $Y2=0.95
r210 6 72 182 $w=1.7e-07 $l=6.4622e-07 $layer=licon1_NDIFF $count=1 $X=7.045
+ $Y=0.37 $X2=7.185 $Y2=0.95
r211 5 65 182 $w=1.7e-07 $l=5.00125e-07 $layer=licon1_NDIFF $count=1 $X=5.665
+ $Y=0.37 $X2=5.805 $Y2=0.805
r212 4 59 182 $w=1.7e-07 $l=5.00125e-07 $layer=licon1_NDIFF $count=1 $X=4.805
+ $Y=0.37 $X2=4.945 $Y2=0.805
r213 3 53 91 $w=1.7e-07 $l=2.03286e-07 $layer=licon1_NDIFF $count=2 $X=1.99
+ $Y=0.37 $X2=2.13 $Y2=0.515
r214 2 41 91 $w=1.7e-07 $l=2.03286e-07 $layer=licon1_NDIFF $count=2 $X=1.13
+ $Y=0.37 $X2=1.27 $Y2=0.515
r215 1 102 91 $w=1.7e-07 $l=1.97864e-07 $layer=licon1_NDIFF $count=2 $X=0.285
+ $Y=0.37 $X2=0.41 $Y2=0.515
.ends

.subckt PM_SKY130_FD_SC_MS__A221OI_4%A_117_368# 1 2 3 4 5 6 19 21 23 27 29 33 37
+ 41 48 50 52 54 56
c101 37 0 1.26143e-19 $X=8.695 $Y=2.035
r102 42 54 8.61065 $w=1.7e-07 $l=1.65e-07 $layer=LI1_cond $X=9.025 $Y=2.035
+ $X2=8.86 $Y2=2.035
r103 41 56 5.12568 $w=1.7e-07 $l=1.65e-07 $layer=LI1_cond $X=9.595 $Y=2.035
+ $X2=9.76 $Y2=2.035
r104 41 42 37.1872 $w=1.68e-07 $l=5.7e-07 $layer=LI1_cond $X=9.595 $Y=2.035
+ $X2=9.025 $Y2=2.035
r105 38 52 8.61065 $w=1.7e-07 $l=1.65e-07 $layer=LI1_cond $X=8.125 $Y=2.035
+ $X2=7.96 $Y2=2.035
r106 37 54 8.61065 $w=1.7e-07 $l=1.65e-07 $layer=LI1_cond $X=8.695 $Y=2.035
+ $X2=8.86 $Y2=2.035
r107 37 38 37.1872 $w=1.68e-07 $l=5.7e-07 $layer=LI1_cond $X=8.695 $Y=2.035
+ $X2=8.125 $Y2=2.035
r108 34 50 8.61065 $w=1.7e-07 $l=1.65e-07 $layer=LI1_cond $X=7.225 $Y=2.035
+ $X2=7.06 $Y2=2.035
r109 33 52 8.61065 $w=1.7e-07 $l=1.65e-07 $layer=LI1_cond $X=7.795 $Y=2.035
+ $X2=7.96 $Y2=2.035
r110 33 34 37.1872 $w=1.68e-07 $l=5.7e-07 $layer=LI1_cond $X=7.795 $Y=2.035
+ $X2=7.225 $Y2=2.035
r111 30 48 6.59134 $w=1.7e-07 $l=1.15e-07 $layer=LI1_cond $X=1.735 $Y=2.035
+ $X2=1.62 $Y2=2.035
r112 29 50 8.61065 $w=1.7e-07 $l=1.65e-07 $layer=LI1_cond $X=6.895 $Y=2.035
+ $X2=7.06 $Y2=2.035
r113 29 30 336.642 $w=1.68e-07 $l=5.16e-06 $layer=LI1_cond $X=6.895 $Y=2.035
+ $X2=1.735 $Y2=2.035
r114 25 48 0.280307 $w=2.3e-07 $l=8.5e-08 $layer=LI1_cond $X=1.62 $Y=2.12
+ $X2=1.62 $Y2=2.035
r115 25 27 22.5478 $w=2.28e-07 $l=4.5e-07 $layer=LI1_cond $X=1.62 $Y=2.12
+ $X2=1.62 $Y2=2.57
r116 24 46 4.57959 $w=1.7e-07 $l=1.4e-07 $layer=LI1_cond $X=0.835 $Y=2.035
+ $X2=0.695 $Y2=2.035
r117 23 48 6.59134 $w=1.7e-07 $l=1.15e-07 $layer=LI1_cond $X=1.505 $Y=2.035
+ $X2=1.62 $Y2=2.035
r118 23 24 43.7112 $w=1.68e-07 $l=6.7e-07 $layer=LI1_cond $X=1.505 $Y=2.035
+ $X2=0.835 $Y2=2.035
r119 19 46 2.78046 $w=2.8e-07 $l=8.5e-08 $layer=LI1_cond $X=0.695 $Y=2.12
+ $X2=0.695 $Y2=2.035
r120 19 21 18.5214 $w=2.78e-07 $l=4.5e-07 $layer=LI1_cond $X=0.695 $Y=2.12
+ $X2=0.695 $Y2=2.57
r121 6 56 300 $w=1.7e-07 $l=2.53673e-07 $layer=licon1_PDIFF $count=2 $X=9.625
+ $Y=1.84 $X2=9.76 $Y2=2.035
r122 5 54 300 $w=1.7e-07 $l=2.53673e-07 $layer=licon1_PDIFF $count=2 $X=8.725
+ $Y=1.84 $X2=8.86 $Y2=2.035
r123 4 52 300 $w=1.7e-07 $l=2.53673e-07 $layer=licon1_PDIFF $count=2 $X=7.825
+ $Y=1.84 $X2=7.96 $Y2=2.035
r124 3 50 300 $w=1.7e-07 $l=2.53673e-07 $layer=licon1_PDIFF $count=2 $X=6.925
+ $Y=1.84 $X2=7.06 $Y2=2.035
r125 2 48 600 $w=1.7e-07 $l=2.53673e-07 $layer=licon1_PDIFF $count=1 $X=1.485
+ $Y=1.84 $X2=1.62 $Y2=2.035
r126 2 27 600 $w=1.7e-07 $l=7.94638e-07 $layer=licon1_PDIFF $count=1 $X=1.485
+ $Y=1.84 $X2=1.62 $Y2=2.57
r127 1 46 600 $w=1.7e-07 $l=2.53673e-07 $layer=licon1_PDIFF $count=1 $X=0.585
+ $Y=1.84 $X2=0.72 $Y2=2.035
r128 1 21 600 $w=1.7e-07 $l=7.94638e-07 $layer=licon1_PDIFF $count=1 $X=0.585
+ $Y=1.84 $X2=0.72 $Y2=2.57
.ends

.subckt PM_SKY130_FD_SC_MS__A221OI_4%A_531_368# 1 2 3 4 5 6 7 8 9 30 34 38 42 44
+ 45 46 47 50 52 56 58 62 64 68 73 75 77 79 82 83 84
r120 68 71 38.2611 $w=2.48e-07 $l=8.3e-07 $layer=LI1_cond $X=10.25 $Y=1.985
+ $X2=10.25 $Y2=2.815
r121 66 71 4.14879 $w=2.48e-07 $l=9e-08 $layer=LI1_cond $X=10.25 $Y=2.905
+ $X2=10.25 $Y2=2.815
r122 65 84 6.59134 $w=1.7e-07 $l=1.15e-07 $layer=LI1_cond $X=9.425 $Y=2.99
+ $X2=9.31 $Y2=2.99
r123 64 66 7.14316 $w=1.7e-07 $l=1.62019e-07 $layer=LI1_cond $X=10.125 $Y=2.99
+ $X2=10.25 $Y2=2.905
r124 64 65 45.6684 $w=1.68e-07 $l=7e-07 $layer=LI1_cond $X=10.125 $Y=2.99
+ $X2=9.425 $Y2=2.99
r125 60 84 0.280307 $w=2.3e-07 $l=8.5e-08 $layer=LI1_cond $X=9.31 $Y=2.905
+ $X2=9.31 $Y2=2.99
r126 60 62 22.5478 $w=2.28e-07 $l=4.5e-07 $layer=LI1_cond $X=9.31 $Y=2.905
+ $X2=9.31 $Y2=2.455
r127 59 83 6.59134 $w=1.7e-07 $l=1.15e-07 $layer=LI1_cond $X=8.525 $Y=2.99
+ $X2=8.41 $Y2=2.99
r128 58 84 6.59134 $w=1.7e-07 $l=1.15e-07 $layer=LI1_cond $X=9.195 $Y=2.99
+ $X2=9.31 $Y2=2.99
r129 58 59 43.7112 $w=1.68e-07 $l=6.7e-07 $layer=LI1_cond $X=9.195 $Y=2.99
+ $X2=8.525 $Y2=2.99
r130 54 83 0.280307 $w=2.3e-07 $l=8.5e-08 $layer=LI1_cond $X=8.41 $Y=2.905
+ $X2=8.41 $Y2=2.99
r131 54 56 22.5478 $w=2.28e-07 $l=4.5e-07 $layer=LI1_cond $X=8.41 $Y=2.905
+ $X2=8.41 $Y2=2.455
r132 53 82 6.59134 $w=1.7e-07 $l=1.15e-07 $layer=LI1_cond $X=7.625 $Y=2.99
+ $X2=7.51 $Y2=2.99
r133 52 83 6.59134 $w=1.7e-07 $l=1.15e-07 $layer=LI1_cond $X=8.295 $Y=2.99
+ $X2=8.41 $Y2=2.99
r134 52 53 43.7112 $w=1.68e-07 $l=6.7e-07 $layer=LI1_cond $X=8.295 $Y=2.99
+ $X2=7.625 $Y2=2.99
r135 48 82 0.280307 $w=2.3e-07 $l=8.5e-08 $layer=LI1_cond $X=7.51 $Y=2.905
+ $X2=7.51 $Y2=2.99
r136 48 50 22.5478 $w=2.28e-07 $l=4.5e-07 $layer=LI1_cond $X=7.51 $Y=2.905
+ $X2=7.51 $Y2=2.455
r137 46 82 6.59134 $w=1.7e-07 $l=1.15e-07 $layer=LI1_cond $X=7.395 $Y=2.99
+ $X2=7.51 $Y2=2.99
r138 46 47 43.7112 $w=1.68e-07 $l=6.7e-07 $layer=LI1_cond $X=7.395 $Y=2.99
+ $X2=6.725 $Y2=2.99
r139 45 47 7.36005 $w=1.7e-07 $l=1.77482e-07 $layer=LI1_cond $X=6.585 $Y=2.905
+ $X2=6.725 $Y2=2.99
r140 44 81 2.78046 $w=2.8e-07 $l=8.5e-08 $layer=LI1_cond $X=6.585 $Y=2.46
+ $X2=6.585 $Y2=2.375
r141 44 45 18.3156 $w=2.78e-07 $l=4.45e-07 $layer=LI1_cond $X=6.585 $Y=2.46
+ $X2=6.585 $Y2=2.905
r142 43 79 8.61065 $w=1.7e-07 $l=1.65e-07 $layer=LI1_cond $X=5.645 $Y=2.375
+ $X2=5.48 $Y2=2.375
r143 42 81 4.57959 $w=1.7e-07 $l=1.4e-07 $layer=LI1_cond $X=6.445 $Y=2.375
+ $X2=6.585 $Y2=2.375
r144 42 43 52.1925 $w=1.68e-07 $l=8e-07 $layer=LI1_cond $X=6.445 $Y=2.375
+ $X2=5.645 $Y2=2.375
r145 39 77 8.61065 $w=1.7e-07 $l=1.65e-07 $layer=LI1_cond $X=4.745 $Y=2.375
+ $X2=4.58 $Y2=2.375
r146 38 79 8.61065 $w=1.7e-07 $l=1.65e-07 $layer=LI1_cond $X=5.315 $Y=2.375
+ $X2=5.48 $Y2=2.375
r147 38 39 37.1872 $w=1.68e-07 $l=5.7e-07 $layer=LI1_cond $X=5.315 $Y=2.375
+ $X2=4.745 $Y2=2.375
r148 35 75 8.61065 $w=1.7e-07 $l=1.65e-07 $layer=LI1_cond $X=3.845 $Y=2.375
+ $X2=3.68 $Y2=2.375
r149 34 77 8.61065 $w=1.7e-07 $l=1.65e-07 $layer=LI1_cond $X=4.415 $Y=2.375
+ $X2=4.58 $Y2=2.375
r150 34 35 37.1872 $w=1.68e-07 $l=5.7e-07 $layer=LI1_cond $X=4.415 $Y=2.375
+ $X2=3.845 $Y2=2.375
r151 31 73 5.12568 $w=1.7e-07 $l=1.65e-07 $layer=LI1_cond $X=2.945 $Y=2.375
+ $X2=2.78 $Y2=2.375
r152 30 75 8.61065 $w=1.7e-07 $l=1.65e-07 $layer=LI1_cond $X=3.515 $Y=2.375
+ $X2=3.68 $Y2=2.375
r153 30 31 37.1872 $w=1.68e-07 $l=5.7e-07 $layer=LI1_cond $X=3.515 $Y=2.375
+ $X2=2.945 $Y2=2.375
r154 9 71 400 $w=1.7e-07 $l=1.04031e-06 $layer=licon1_PDIFF $count=1 $X=10.075
+ $Y=1.84 $X2=10.21 $Y2=2.815
r155 9 68 400 $w=1.7e-07 $l=2.01494e-07 $layer=licon1_PDIFF $count=1 $X=10.075
+ $Y=1.84 $X2=10.21 $Y2=1.985
r156 8 62 300 $w=1.7e-07 $l=6.79154e-07 $layer=licon1_PDIFF $count=2 $X=9.175
+ $Y=1.84 $X2=9.31 $Y2=2.455
r157 7 56 300 $w=1.7e-07 $l=6.79154e-07 $layer=licon1_PDIFF $count=2 $X=8.275
+ $Y=1.84 $X2=8.41 $Y2=2.455
r158 6 50 300 $w=1.7e-07 $l=6.79154e-07 $layer=licon1_PDIFF $count=2 $X=7.375
+ $Y=1.84 $X2=7.51 $Y2=2.455
r159 5 81 300 $w=1.7e-07 $l=6.79154e-07 $layer=licon1_PDIFF $count=2 $X=6.475
+ $Y=1.84 $X2=6.61 $Y2=2.455
r160 4 79 300 $w=1.7e-07 $l=6.23859e-07 $layer=licon1_PDIFF $count=2 $X=5.345
+ $Y=1.84 $X2=5.48 $Y2=2.4
r161 3 77 300 $w=1.7e-07 $l=6.23859e-07 $layer=licon1_PDIFF $count=2 $X=4.445
+ $Y=1.84 $X2=4.58 $Y2=2.4
r162 2 75 300 $w=1.7e-07 $l=6.23859e-07 $layer=licon1_PDIFF $count=2 $X=3.545
+ $Y=1.84 $X2=3.68 $Y2=2.4
r163 1 73 300 $w=1.7e-07 $l=6.19354e-07 $layer=licon1_PDIFF $count=2 $X=2.655
+ $Y=1.84 $X2=2.78 $Y2=2.4
.ends

.subckt PM_SKY130_FD_SC_MS__A221OI_4%VPWR 1 2 3 4 15 17 21 25 29 31 32 34 35 36
+ 49 58 59 62 65
r115 65 66 9.3 $w=1.7e-07 $l=1.7e-07 $layer=mcon $count=1 $X=6 $Y=3.33 $X2=6
+ $Y2=3.33
r116 62 63 4.65 $w=1.7e-07 $l=3.4e-07 $layer=mcon $count=2 $X=4.08 $Y=3.33
+ $X2=4.08 $Y2=3.33
r117 58 59 2.06667 $w=1.7e-07 $l=7.65e-07 $layer=mcon $count=4 $X=10.32 $Y=3.33
+ $X2=10.32 $Y2=3.33
r118 56 59 1.07034 $w=4.9e-07 $l=3.84e-06 $layer=MET1_cond $X=6.48 $Y=3.33
+ $X2=10.32 $Y2=3.33
r119 56 66 0.133793 $w=4.9e-07 $l=4.8e-07 $layer=MET1_cond $X=6.48 $Y=3.33 $X2=6
+ $Y2=3.33
r120 55 58 250.524 $w=1.68e-07 $l=3.84e-06 $layer=LI1_cond $X=6.48 $Y=3.33