* File: sky130_fd_sc_ms__sdfxtp_2.pex.spice
* Created: Fri Aug 28 18:14:34 2020
* Program "Calibre xRC"
* Version "v2018.4_34.26"
* Nominal Temperature: 27C
* Circuit Temperature: 27C
* 
.subckt PM_SKY130_FD_SC_MS__SDFXTP_2%SCE 2 3 5 6 8 9 10 11 13 14 16 20 22 28 31
+ 37 43
c82 37 0 1.36067e-19 $X=2.135 $Y=1.065
c83 31 0 3.45016e-20 $X=0.54 $Y=1.065
c84 22 0 4.92605e-20 $X=2.04 $Y=0.935
c85 9 0 3.58619e-20 $X=0.915 $Y=2.115
r86 33 34 145.28 $w=1.7e-07 $l=1.7e-07 $layer=licon1_POLY $count=1 $X=0.59
+ $Y=1.065 $X2=0.59 $Y2=1.065
r87 31 33 9.41406 $w=2.56e-07 $l=5e-08 $layer=POLY_cond $X=0.54 $Y=1.065
+ $X2=0.59 $Y2=1.065
r88 28 43 7.36464 $w=4.18e-07 $l=1.15e-07 $layer=LI1_cond $X=0.72 $Y=1.02
+ $X2=0.835 $Y2=1.02
r89 28 34 3.56709 $w=4.18e-07 $l=1.3e-07 $layer=LI1_cond $X=0.72 $Y=1.02
+ $X2=0.59 $Y2=1.02
r90 26 37 16.6118 $w=3.3e-07 $l=9.5e-08 $layer=POLY_cond $X=2.04 $Y=1.065
+ $X2=2.135 $Y2=1.065
r91 25 26 145.28 $w=1.7e-07 $l=1.7e-07 $layer=licon1_POLY $count=1 $X=2.04
+ $Y=1.065 $X2=2.04 $Y2=1.065
r92 22 25 4.53993 $w=3.28e-07 $l=1.3e-07 $layer=LI1_cond $X=2.04 $Y=0.935
+ $X2=2.04 $Y2=1.065
r93 20 22 4.62375 $w=1.7e-07 $l=1.65e-07 $layer=LI1_cond $X=1.875 $Y=0.935
+ $X2=2.04 $Y2=0.935
r94 20 43 67.8503 $w=1.68e-07 $l=1.04e-06 $layer=LI1_cond $X=1.875 $Y=0.935
+ $X2=0.835 $Y2=0.935
r95 14 37 21.2229 $w=1.5e-07 $l=1.65e-07 $layer=POLY_cond $X=2.135 $Y=0.9
+ $X2=2.135 $Y2=1.065
r96 14 16 102.827 $w=1.5e-07 $l=3.2e-07 $layer=POLY_cond $X=2.135 $Y=0.9
+ $X2=2.135 $Y2=0.58
r97 11 13 105.772 $w=1.8e-07 $l=3.95e-07 $layer=POLY_cond $X=1.005 $Y=2.19
+ $X2=1.005 $Y2=2.585
r98 9 11 27.2212 $w=1.5e-07 $l=1.21861e-07 $layer=POLY_cond $X=0.915 $Y=2.115
+ $X2=1.005 $Y2=2.19
r99 9 10 164.085 $w=1.5e-07 $l=3.2e-07 $layer=POLY_cond $X=0.915 $Y=2.115
+ $X2=0.595 $Y2=2.115
r100 6 31 15.2686 $w=1.5e-07 $l=1.65e-07 $layer=POLY_cond $X=0.54 $Y=0.9
+ $X2=0.54 $Y2=1.065
r101 6 8 102.827 $w=1.5e-07 $l=3.2e-07 $layer=POLY_cond $X=0.54 $Y=0.9 $X2=0.54
+ $Y2=0.58
r102 3 10 46.1489 $w=1.5e-07 $l=9e-08 $layer=POLY_cond $X=0.505 $Y=2.115
+ $X2=0.595 $Y2=2.115
r103 3 17 120.5 $w=1.5e-07 $l=2.35e-07 $layer=POLY_cond $X=0.505 $Y=2.115
+ $X2=0.27 $Y2=2.115
r104 3 5 105.772 $w=1.8e-07 $l=3.95e-07 $layer=POLY_cond $X=0.505 $Y=2.19
+ $X2=0.505 $Y2=2.585
r105 2 17 2.83073 $w=1.5e-07 $l=7.5e-08 $layer=POLY_cond $X=0.27 $Y=2.04
+ $X2=0.27 $Y2=2.115
r106 1 31 50.8359 $w=2.56e-07 $l=3.4271e-07 $layer=POLY_cond $X=0.27 $Y=1.23
+ $X2=0.54 $Y2=1.065
r107 1 2 415.34 $w=1.5e-07 $l=8.1e-07 $layer=POLY_cond $X=0.27 $Y=1.23 $X2=0.27
+ $Y2=2.04
.ends

.subckt PM_SKY130_FD_SC_MS__SDFXTP_2%A_27_74# 1 2 9 13 15 17 20 22 27 35 37 38
c83 35 0 1.9954e-19 $X=0.915 $Y=1.827
c84 15 0 1.79254e-19 $X=0.965 $Y=1.635
r85 38 46 40.6903 $w=3.3e-07 $l=1.65e-07 $layer=POLY_cond $X=2.045 $Y=1.94
+ $X2=2.045 $Y2=2.105
r86 37 40 5.5876 $w=3.28e-07 $l=1.6e-07 $layer=LI1_cond $X=2.045 $Y=1.94
+ $X2=2.045 $Y2=2.1
r87 37 38 145.28 $w=1.7e-07 $l=1.7e-07 $layer=licon1_POLY $count=1 $X=2.045
+ $Y=1.94 $X2=2.045 $Y2=1.94
r88 33 35 10.9011 $w=7.13e-07 $l=1.65e-07 $layer=LI1_cond $X=0.75 $Y=1.827
+ $X2=0.915 $Y2=1.827
r89 33 34 145.28 $w=1.7e-07 $l=1.7e-07 $layer=licon1_POLY $count=1 $X=0.75
+ $Y=1.635 $X2=0.75 $Y2=1.635
r90 31 33 8.11326 $w=7.13e-07 $l=4.85e-07 $layer=LI1_cond $X=0.265 $Y=1.827
+ $X2=0.75 $Y2=1.827
r91 24 27 5.9927 $w=2.48e-07 $l=1.3e-07 $layer=LI1_cond $X=0.17 $Y=0.515 $X2=0.3
+ $Y2=0.515
r92 22 40 4.62375 $w=1.7e-07 $l=1.65e-07 $layer=LI1_cond $X=1.88 $Y=2.1
+ $X2=2.045 $Y2=2.1
r93 22 35 62.9572 $w=1.68e-07 $l=9.65e-07 $layer=LI1_cond $X=1.88 $Y=2.1
+ $X2=0.915 $Y2=2.1
r94 18 31 4.75969 $w=3.6e-07 $l=3.58e-07 $layer=LI1_cond $X=0.265 $Y=2.185
+ $X2=0.265 $Y2=1.827
r95 18 20 7.20277 $w=3.58e-07 $l=2.25e-07 $layer=LI1_cond $X=0.265 $Y=2.185
+ $X2=0.265 $Y2=2.41
r96 17 31 1.5892 $w=7.13e-07 $l=9.5e-08 $layer=LI1_cond $X=0.17 $Y=1.827
+ $X2=0.265 $Y2=1.827
r97 16 24 2.99516 $w=1.7e-07 $l=1.25e-07 $layer=LI1_cond $X=0.17 $Y=0.64
+ $X2=0.17 $Y2=0.515
r98 16 17 54.1497 $w=1.68e-07 $l=8.3e-07 $layer=LI1_cond $X=0.17 $Y=0.64
+ $X2=0.17 $Y2=1.47
r99 15 34 37.5952 $w=3.3e-07 $l=2.15e-07 $layer=POLY_cond $X=0.965 $Y=1.635
+ $X2=0.75 $Y2=1.635
r100 13 46 186.581 $w=1.8e-07 $l=4.8e-07 $layer=POLY_cond $X=2.12 $Y=2.585
+ $X2=2.12 $Y2=2.105
r101 7 15 32.1775 $w=3.3e-07 $l=1.98997e-07 $layer=POLY_cond $X=1.04 $Y=1.47
+ $X2=0.965 $Y2=1.635
r102 7 9 456.362 $w=1.5e-07 $l=8.9e-07 $layer=POLY_cond $X=1.04 $Y=1.47 $X2=1.04
+ $Y2=0.58
r103 2 20 300 $w=1.7e-07 $l=2.05061e-07 $layer=licon1_PDIFF $count=2 $X=0.135
+ $Y=2.265 $X2=0.28 $Y2=2.41
r104 1 27 182 $w=1.7e-07 $l=2.5446e-07 $layer=licon1_NDIFF $count=1 $X=0.135
+ $Y=0.37 $X2=0.3 $Y2=0.555
.ends

.subckt PM_SKY130_FD_SC_MS__SDFXTP_2%D 3 7 11 12 13 16 17
c43 17 0 2.0643e-19 $X=1.5 $Y=1.355
c44 16 0 4.92605e-20 $X=1.5 $Y=1.355
c45 11 0 1.9954e-19 $X=1.5 $Y=1.695
c46 3 0 1.45164e-19 $X=1.425 $Y=2.585
r47 16 17 72.64 $w=1.7e-07 $l=3.4e-07 $layer=licon1_POLY $count=2 $X=1.5
+ $Y=1.355 $X2=1.5 $Y2=1.355
r48 13 17 5.47822 $w=6.53e-07 $l=3e-07 $layer=LI1_cond $X=1.2 $Y=1.517 $X2=1.5
+ $Y2=1.517
r49 11 16 59.4528 $w=3.3e-07 $l=3.4e-07 $layer=POLY_cond $X=1.5 $Y=1.695 $X2=1.5
+ $Y2=1.355
r50 11 12 40.6903 $w=3.3e-07 $l=1.65e-07 $layer=POLY_cond $X=1.5 $Y=1.695
+ $X2=1.5 $Y2=1.86
r51 10 16 43.0552 $w=3.3e-07 $l=1.65e-07 $layer=POLY_cond $X=1.5 $Y=1.19 $X2=1.5
+ $Y2=1.355
r52 7 10 312.787 $w=1.5e-07 $l=6.1e-07 $layer=POLY_cond $X=1.43 $Y=0.58 $X2=1.43
+ $Y2=1.19
r53 3 12 281.815 $w=1.8e-07 $l=7.25e-07 $layer=POLY_cond $X=1.425 $Y=2.585
+ $X2=1.425 $Y2=1.86
.ends

.subckt PM_SKY130_FD_SC_MS__SDFXTP_2%SCD 3 7 11 12 13 14 18
r42 13 14 15.1913 $w=3.28e-07 $l=4.35e-07 $layer=LI1_cond $X=2.615 $Y=1.6
+ $X2=2.615 $Y2=2.035
r43 13 18 72.64 $w=1.7e-07 $l=3.4e-07 $layer=licon1_POLY $count=2 $X=2.615
+ $Y=1.6 $X2=2.615 $Y2=1.6
r44 11 18 59.4528 $w=3.3e-07 $l=3.4e-07 $layer=POLY_cond $X=2.615 $Y=1.94
+ $X2=2.615 $Y2=1.6
r45 11 12 40.6903 $w=3.3e-07 $l=1.65e-07 $layer=POLY_cond $X=2.615 $Y=1.94
+ $X2=2.615 $Y2=2.105
r46 10 18 46.2115 $w=3.3e-07 $l=1.65e-07 $layer=POLY_cond $X=2.615 $Y=1.435
+ $X2=2.615 $Y2=1.6
r47 7 12 186.581 $w=1.8e-07 $l=4.8e-07 $layer=POLY_cond $X=2.54 $Y=2.585
+ $X2=2.54 $Y2=2.105
r48 3 10 438.415 $w=1.5e-07 $l=8.55e-07 $layer=POLY_cond $X=2.525 $Y=0.58
+ $X2=2.525 $Y2=1.435
.ends

.subckt PM_SKY130_FD_SC_MS__SDFXTP_2%CLK 3 7 9 15 16
c45 15 0 1.00538e-19 $X=3.455 $Y=1.515
r46 15 16 145.28 $w=1.7e-07 $l=1.7e-07 $layer=licon1_POLY $count=1 $X=3.455
+ $Y=1.515 $X2=3.455 $Y2=1.515
r47 13 15 30.6007 $w=3.3e-07 $l=1.75e-07 $layer=POLY_cond $X=3.28 $Y=1.515
+ $X2=3.455 $Y2=1.515
r48 11 13 32.3493 $w=3.3e-07 $l=1.85e-07 $layer=POLY_cond $X=3.095 $Y=1.515
+ $X2=3.28 $Y2=1.515
r49 9 16 4.37637 $w=3.93e-07 $l=1.5e-07 $layer=LI1_cond $X=3.487 $Y=1.665
+ $X2=3.487 $Y2=1.515
r50 5 13 16.9318 $w=1.8e-07 $l=1.65e-07 $layer=POLY_cond $X=3.28 $Y=1.68
+ $X2=3.28 $Y2=1.515
r51 5 7 279.871 $w=1.8e-07 $l=7.2e-07 $layer=POLY_cond $X=3.28 $Y=1.68 $X2=3.28
+ $Y2=2.4
r52 1 11 21.2229 $w=1.5e-07 $l=1.65e-07 $layer=POLY_cond $X=3.095 $Y=1.35
+ $X2=3.095 $Y2=1.515
r53 1 3 312.787 $w=1.5e-07 $l=6.1e-07 $layer=POLY_cond $X=3.095 $Y=1.35
+ $X2=3.095 $Y2=0.74
.ends

.subckt PM_SKY130_FD_SC_MS__SDFXTP_2%A_846_74# 1 2 7 9 13 16 19 28 30 31 33 34
+ 37 40 41 43 46 47 48 50 52 56 57 59 60 65 66 71 72 77 80
c194 71 0 1.91717e-19 $X=8.58 $Y=2.155
c195 65 0 1.80614e-19 $X=8.26 $Y=1.195
c196 57 0 5.96821e-20 $X=5.21 $Y=1.775
c197 56 0 1.28501e-19 $X=5.21 $Y=1.775
c198 40 0 1.59795e-19 $X=6.11 $Y=1.195
c199 7 0 1.73396e-19 $X=5.525 $Y=2.28
r200 72 82 23.6063 $w=3.3e-07 $l=1.35e-07 $layer=POLY_cond $X=8.58 $Y=2.155
+ $X2=8.445 $Y2=2.155
r201 71 72 145.28 $w=1.7e-07 $l=1.7e-07 $layer=licon1_POLY $count=1 $X=8.58
+ $Y=2.155 $X2=8.58 $Y2=2.155
r202 68 71 7.33373 $w=3.28e-07 $l=2.1e-07 $layer=LI1_cond $X=8.37 $Y=2.155
+ $X2=8.58 $Y2=2.155
r203 65 80 46.2115 $w=3.3e-07 $l=1.65e-07 $layer=POLY_cond $X=8.26 $Y=1.195
+ $X2=8.26 $Y2=1.03
r204 64 66 3.84148 $w=3.28e-07 $l=1.1e-07 $layer=LI1_cond $X=8.26 $Y=1.195
+ $X2=8.37 $Y2=1.195
r205 64 65 145.28 $w=1.7e-07 $l=1.7e-07 $layer=licon1_POLY $count=1 $X=8.26
+ $Y=1.195 $X2=8.26 $Y2=1.195
r206 61 64 4.01609 $w=3.28e-07 $l=1.15e-07 $layer=LI1_cond $X=8.145 $Y=1.195
+ $X2=8.26 $Y2=1.195
r207 56 58 1.31655 $w=5.56e-07 $l=6e-08 $layer=LI1_cond $X=5.21 $Y=1.945
+ $X2=5.27 $Y2=1.945
r208 56 57 72.64 $w=1.7e-07 $l=3.4e-07 $layer=licon1_POLY $count=2 $X=5.21
+ $Y=1.775 $X2=5.21 $Y2=1.775
r209 54 56 10.3129 $w=5.56e-07 $l=4.7e-07 $layer=LI1_cond $X=4.74 $Y=1.945
+ $X2=5.21 $Y2=1.945
r210 52 68 4.62375 $w=1.7e-07 $l=1.65e-07 $layer=LI1_cond $X=8.37 $Y=1.99
+ $X2=8.37 $Y2=2.155
r211 51 66 4.62375 $w=1.7e-07 $l=1.65e-07 $layer=LI1_cond $X=8.37 $Y=1.36
+ $X2=8.37 $Y2=1.195
r212 51 52 41.1016 $w=1.68e-07 $l=6.3e-07 $layer=LI1_cond $X=8.37 $Y=1.36
+ $X2=8.37 $Y2=1.99
r213 50 61 4.62375 $w=1.7e-07 $l=1.65e-07 $layer=LI1_cond $X=8.145 $Y=1.03
+ $X2=8.145 $Y2=1.195
r214 49 50 39.4706 $w=1.68e-07 $l=6.05e-07 $layer=LI1_cond $X=8.145 $Y=0.425
+ $X2=8.145 $Y2=1.03
r215 47 49 6.81649 $w=1.7e-07 $l=1.20208e-07 $layer=LI1_cond $X=8.06 $Y=0.34
+ $X2=8.145 $Y2=0.425
r216 47 48 43.7112 $w=1.68e-07 $l=6.7e-07 $layer=LI1_cond $X=8.06 $Y=0.34
+ $X2=7.39 $Y2=0.34
r217 45 48 6.81649 $w=1.7e-07 $l=1.20208e-07 $layer=LI1_cond $X=7.305 $Y=0.425
+ $X2=7.39 $Y2=0.34
r218 45 46 19.246 $w=1.68e-07 $l=2.95e-07 $layer=LI1_cond $X=7.305 $Y=0.425
+ $X2=7.305 $Y2=0.72
r219 44 60 2.76166 $w=1.7e-07 $l=1.65e-07 $layer=LI1_cond $X=6.275 $Y=0.805
+ $X2=6.11 $Y2=0.805
r220 43 46 6.81649 $w=1.7e-07 $l=1.20208e-07 $layer=LI1_cond $X=7.22 $Y=0.805
+ $X2=7.305 $Y2=0.72
r221 43 44 61.6524 $w=1.68e-07 $l=9.45e-07 $layer=LI1_cond $X=7.22 $Y=0.805
+ $X2=6.275 $Y2=0.805
r222 41 77 46.2115 $w=3.3e-07 $l=1.65e-07 $layer=POLY_cond $X=6.11 $Y=1.195
+ $X2=6.11 $Y2=1.03
r223 40 41 145.28 $w=1.7e-07 $l=1.7e-07 $layer=licon1_POLY $count=1 $X=6.11
+ $Y=1.195 $X2=6.11 $Y2=1.195
r224 38 60 3.70735 $w=2.5e-07 $l=8.5e-08 $layer=LI1_cond $X=6.11 $Y=0.89
+ $X2=6.11 $Y2=0.805
r225 38 40 10.6514 $w=3.28e-07 $l=3.05e-07 $layer=LI1_cond $X=6.11 $Y=0.89
+ $X2=6.11 $Y2=1.195
r226 37 60 3.70735 $w=2.5e-07 $l=1.18427e-07 $layer=LI1_cond $X=6.03 $Y=0.72
+ $X2=6.11 $Y2=0.805
r227 36 37 19.246 $w=1.68e-07 $l=2.95e-07 $layer=LI1_cond $X=6.03 $Y=0.425
+ $X2=6.03 $Y2=0.72
r228 35 59 5.16603 $w=1.7e-07 $l=8.5e-08 $layer=LI1_cond $X=5.355 $Y=0.34
+ $X2=5.27 $Y2=0.34
r229 34 36 6.81649 $w=1.7e-07 $l=1.20208e-07 $layer=LI1_cond $X=5.945 $Y=0.34
+ $X2=6.03 $Y2=0.425
r230 34 35 38.492 $w=1.68e-07 $l=5.9e-07 $layer=LI1_cond $X=5.945 $Y=0.34
+ $X2=5.355 $Y2=0.34
r231 33 58 7.82841 $w=1.7e-07 $l=3.35e-07 $layer=LI1_cond $X=5.27 $Y=1.61
+ $X2=5.27 $Y2=1.945
r232 32 59 1.34256 $w=1.7e-07 $l=8.5e-08 $layer=LI1_cond $X=5.27 $Y=0.425
+ $X2=5.27 $Y2=0.34
r233 32 33 77.3102 $w=1.68e-07 $l=1.185e-06 $layer=LI1_cond $X=5.27 $Y=0.425
+ $X2=5.27 $Y2=1.61
r234 30 59 5.16603 $w=1.7e-07 $l=8.5e-08 $layer=LI1_cond $X=5.185 $Y=0.34
+ $X2=5.27 $Y2=0.34
r235 30 31 42.4064 $w=1.68e-07 $l=6.5e-07 $layer=LI1_cond $X=5.185 $Y=0.34
+ $X2=4.535 $Y2=0.34
r236 26 31 7.76618 $w=1.7e-07 $l=2.03101e-07 $layer=LI1_cond $X=4.37 $Y=0.425
+ $X2=4.535 $Y2=0.34
r237 26 28 3.14303 $w=3.28e-07 $l=9e-08 $layer=LI1_cond $X=4.37 $Y=0.425
+ $X2=4.37 $Y2=0.515
r238 22 57 62.0758 $w=3.3e-07 $l=3.55e-07 $layer=POLY_cond $X=5.21 $Y=2.13
+ $X2=5.21 $Y2=1.775
r239 17 82 16.9318 $w=1.8e-07 $l=1.65e-07 $layer=POLY_cond $X=8.445 $Y=2.32
+ $X2=8.445 $Y2=2.155
r240 17 19 143.823 $w=1.8e-07 $l=3.7e-07 $layer=POLY_cond $X=8.445 $Y=2.32
+ $X2=8.445 $Y2=2.69
r241 16 80 123.713 $w=1.5e-07 $l=3.85e-07 $layer=POLY_cond $X=8.35 $Y=0.645
+ $X2=8.35 $Y2=1.03
r242 13 77 102.827 $w=1.5e-07 $l=3.2e-07 $layer=POLY_cond $X=6.02 $Y=0.71
+ $X2=6.02 $Y2=1.03
r243 7 22 161.521 $w=1.5e-07 $l=3.15e-07 $layer=POLY_cond $X=5.525 $Y=2.205
+ $X2=5.21 $Y2=2.205
r244 7 9 182.694 $w=1.8e-07 $l=4.7e-07 $layer=POLY_cond $X=5.525 $Y=2.28
+ $X2=5.525 $Y2=2.75
r245 2 54 600 $w=1.7e-07 $l=2.69165e-07 $layer=licon1_PDIFF $count=1 $X=4.605
+ $Y=1.84 $X2=4.74 $Y2=2.05
r246 1 28 91 $w=1.7e-07 $l=2.03286e-07 $layer=licon1_NDIFF $count=2 $X=4.23
+ $Y=0.37 $X2=4.37 $Y2=0.515
.ends

.subckt PM_SKY130_FD_SC_MS__SDFXTP_2%A_634_74# 1 2 7 9 12 14 18 20 23 24 25 28
+ 32 34 38 40 45 47 49 53 55 58 60 63 64 65 67 71 72 79 86 89
c211 79 0 7.36295e-20 $X=7.95 $Y=1.765
c212 71 0 1.73396e-19 $X=6.06 $Y=2.135
c213 60 0 1.10031e-19 $X=7.005 $Y=2.215
c214 55 0 1.00538e-19 $X=4 $Y=1.445
c215 38 0 1.57288e-19 $X=8.86 $Y=0.58
c216 20 0 2.88296e-19 $X=5.585 $Y=1.295
r217 85 86 35.7342 $w=4.1e-07 $l=9e-08 $layer=POLY_cond $X=4.515 $Y=1.425
+ $X2=4.605 $Y2=1.425
r218 84 85 48.833 $w=4.1e-07 $l=3.6e-07 $layer=POLY_cond $X=4.155 $Y=1.425
+ $X2=4.515 $Y2=1.425
r219 80 92 40.6903 $w=3.3e-07 $l=1.65e-07 $layer=POLY_cond $X=7.95 $Y=1.765
+ $X2=7.95 $Y2=1.93
r220 80 89 15.7375 $w=3.3e-07 $l=9e-08 $layer=POLY_cond $X=7.95 $Y=1.765
+ $X2=7.95 $Y2=1.675
r221 79 80 145.28 $w=1.7e-07 $l=1.7e-07 $layer=licon1_POLY $count=1 $X=7.95
+ $Y=1.765 $X2=7.95 $Y2=1.765
r222 76 79 6.28605 $w=3.28e-07 $l=1.8e-07 $layer=LI1_cond $X=7.77 $Y=1.765
+ $X2=7.95 $Y2=1.765
r223 72 88 40.7132 $w=3.4e-07 $l=1.65e-07 $layer=POLY_cond $X=6.055 $Y=2.135
+ $X2=6.055 $Y2=2.3
r224 71 74 2.7938 $w=3.28e-07 $l=8e-08 $layer=LI1_cond $X=6.06 $Y=2.135 $X2=6.06
+ $Y2=2.215
r225 71 72 145.28 $w=1.7e-07 $l=1.7e-07 $layer=licon1_POLY $count=1 $X=6.06
+ $Y=2.135 $X2=6.06 $Y2=2.135
r226 66 76 4.62375 $w=1.7e-07 $l=1.65e-07 $layer=LI1_cond $X=7.77 $Y=1.93
+ $X2=7.77 $Y2=1.765
r227 66 67 63.6096 $w=1.68e-07 $l=9.75e-07 $layer=LI1_cond $X=7.77 $Y=1.93
+ $X2=7.77 $Y2=2.905
r228 64 67 6.81649 $w=1.7e-07 $l=1.20208e-07 $layer=LI1_cond $X=7.685 $Y=2.99
+ $X2=7.77 $Y2=2.905
r229 64 65 33.2727 $w=1.68e-07 $l=5.1e-07 $layer=LI1_cond $X=7.685 $Y=2.99
+ $X2=7.175 $Y2=2.99
r230 63 65 6.81649 $w=1.7e-07 $l=1.20208e-07 $layer=LI1_cond $X=7.09 $Y=2.905
+ $X2=7.175 $Y2=2.99
r231 62 63 39.4706 $w=1.68e-07 $l=6.05e-07 $layer=LI1_cond $X=7.09 $Y=2.3
+ $X2=7.09 $Y2=2.905
r232 61 74 4.62375 $w=1.7e-07 $l=1.65e-07 $layer=LI1_cond $X=6.225 $Y=2.215
+ $X2=6.06 $Y2=2.215
r233 60 62 6.81649 $w=1.7e-07 $l=1.20208e-07 $layer=LI1_cond $X=7.005 $Y=2.215
+ $X2=7.09 $Y2=2.3
r234 60 61 50.8877 $w=1.68e-07 $l=7.8e-07 $layer=LI1_cond $X=7.005 $Y=2.215
+ $X2=6.225 $Y2=2.215
r235 59 84 21.0253 $w=4.1e-07 $l=1.55e-07 $layer=POLY_cond $X=4 $Y=1.425
+ $X2=4.155 $Y2=1.425
r236 58 59 145.28 $w=1.7e-07 $l=1.7e-07 $layer=licon1_POLY $count=1 $X=4
+ $Y=1.465 $X2=4 $Y2=1.465
r237 56 58 19.2736 $w=2.88e-07 $l=4.85e-07 $layer=LI1_cond $X=4 $Y=1.95 $X2=4
+ $Y2=1.465
r238 55 69 15.6734 $w=2.9e-07 $l=3.5e-07 $layer=LI1_cond $X=4 $Y=1.445 $X2=4
+ $Y2=1.095
r239 55 58 0.794788 $w=2.88e-07 $l=2e-08 $layer=LI1_cond $X=4 $Y=1.445 $X2=4
+ $Y2=1.465
r240 54 68 2.55969 $w=1.7e-07 $l=1.65e-07 $layer=LI1_cond $X=3.475 $Y=1.095
+ $X2=3.31 $Y2=1.095
r241 53 69 1.9771 $w=1.7e-07 $l=1.45e-07 $layer=LI1_cond $X=3.855 $Y=1.095 $X2=4
+ $Y2=1.095
r242 53 54 24.7914 $w=1.68e-07 $l=3.8e-07 $layer=LI1_cond $X=3.855 $Y=1.095
+ $X2=3.475 $Y2=1.095
r243 49 56 6.85346 $w=3.3e-07 $l=2.26164e-07 $layer=LI1_cond $X=3.855 $Y=2.115
+ $X2=4 $Y2=1.95
r244 49 51 12.2229 $w=3.28e-07 $l=3.5e-07 $layer=LI1_cond $X=3.855 $Y=2.115
+ $X2=3.505 $Y2=2.115
r245 45 68 13.6603 $w=3.3e-07 $l=3.4e-07 $layer=LI1_cond $X=3.31 $Y=0.755
+ $X2=3.31 $Y2=1.095
r246 45 47 9.07985 $w=3.28e-07 $l=2.6e-07 $layer=LI1_cond $X=3.31 $Y=0.755
+ $X2=3.31 $Y2=0.495
r247 36 38 523.021 $w=1.5e-07 $l=1.02e-06 $layer=POLY_cond $X=8.86 $Y=1.6
+ $X2=8.86 $Y2=0.58
r248 35 89 21.2229 $w=1.5e-07 $l=1.65e-07 $layer=POLY_cond $X=8.115 $Y=1.675
+ $X2=7.95 $Y2=1.675
r249 34 36 26.9307 $w=1.5e-07 $l=1.06066e-07 $layer=POLY_cond $X=8.785 $Y=1.675
+ $X2=8.86 $Y2=1.6
r250 34 35 343.553 $w=1.5e-07 $l=6.7e-07 $layer=POLY_cond $X=8.785 $Y=1.675
+ $X2=8.115 $Y2=1.675
r251 32 92 237.113 $w=1.8e-07 $l=6.1e-07 $layer=POLY_cond $X=7.885 $Y=2.54
+ $X2=7.885 $Y2=1.93
r252 28 88 174.919 $w=1.8e-07 $l=4.5e-07 $layer=POLY_cond $X=5.975 $Y=2.75
+ $X2=5.975 $Y2=2.3
r253 25 72 0.848592 $w=3.4e-07 $l=5e-09 $layer=POLY_cond $X=6.055 $Y=2.13
+ $X2=6.055 $Y2=2.135
r254 24 41 202.543 $w=1.5e-07 $l=3.95e-07 $layer=POLY_cond $X=6.055 $Y=1.815
+ $X2=5.66 $Y2=1.815
r255 24 25 40.7324 $w=3.4e-07 $l=2.4e-07 $layer=POLY_cond $X=6.055 $Y=1.89
+ $X2=6.055 $Y2=2.13
r256 23 41 2.83073 $w=1.5e-07 $l=7.5e-08 $layer=POLY_cond $X=5.66 $Y=1.74
+ $X2=5.66 $Y2=1.815
r257 22 23 189.723 $w=1.5e-07 $l=3.7e-07 $layer=POLY_cond $X=5.66 $Y=1.37
+ $X2=5.66 $Y2=1.74
r258 21 40 20.4101 $w=1.5e-07 $l=7.5e-08 $layer=POLY_cond $X=5.22 $Y=1.295
+ $X2=5.145 $Y2=1.295
r259 20 22 26.9307 $w=1.5e-07 $l=1.06066e-07 $layer=POLY_cond $X=5.585 $Y=1.295
+ $X2=5.66 $Y2=1.37
r260 20 21 187.16 $w=1.5e-07 $l=3.65e-07 $layer=POLY_cond $X=5.585 $Y=1.295
+ $X2=5.22 $Y2=1.295
r261 16 40 5.30422 $w=1.5e-07 $l=7.5e-08 $layer=POLY_cond $X=5.145 $Y=1.22
+ $X2=5.145 $Y2=1.295
r262 16 18 261.511 $w=1.5e-07 $l=5.1e-07 $layer=POLY_cond $X=5.145 $Y=1.22
+ $X2=5.145 $Y2=0.71
r263 14 40 20.4101 $w=1.5e-07 $l=7.5e-08 $layer=POLY_cond $X=5.07 $Y=1.295
+ $X2=5.145 $Y2=1.295
r264 14 86 238.436 $w=1.5e-07 $l=4.65e-07 $layer=POLY_cond $X=5.07 $Y=1.295
+ $X2=4.605 $Y2=1.295
r265 10 85 22.0516 $w=1.8e-07 $l=2.05e-07 $layer=POLY_cond $X=4.515 $Y=1.63
+ $X2=4.515 $Y2=1.425
r266 10 12 299.306 $w=1.8e-07 $l=7.7e-07 $layer=POLY_cond $X=4.515 $Y=1.63
+ $X2=4.515 $Y2=2.4
r267 7 84 26.4667 $w=1.5e-07 $l=2.05e-07 $layer=POLY_cond $X=4.155 $Y=1.22
+ $X2=4.155 $Y2=1.425
r268 7 9 154.24 $w=1.5e-07 $l=4.8e-07 $layer=POLY_cond $X=4.155 $Y=1.22
+ $X2=4.155 $Y2=0.74
r269 2 51 600 $w=1.7e-07 $l=3.35783e-07 $layer=licon1_PDIFF $count=1 $X=3.37
+ $Y=1.84 $X2=3.505 $Y2=2.115
r270 1 47 91 $w=1.7e-07 $l=1.92614e-07 $layer=licon1_NDIFF $count=2 $X=3.17
+ $Y=0.37 $X2=3.31 $Y2=0.495
.ends

.subckt PM_SKY130_FD_SC_MS__SDFXTP_2%A_1287_320# 1 2 9 15 17 18 20 21 24 28 32
+ 34
c80 32 0 1.06984e-19 $X=7.725 $Y=0.765
c81 18 0 1.86347e-19 $X=6.535 $Y=1.75
r82 30 34 6.46576 $w=2.5e-07 $l=3.8e-07 $layer=LI1_cond $X=7.725 $Y=1.06
+ $X2=7.345 $Y2=1.06
r83 30 32 10.3021 $w=3.28e-07 $l=2.95e-07 $layer=LI1_cond $X=7.725 $Y=1.06
+ $X2=7.725 $Y2=0.765
r84 26 34 6.46576 $w=2.5e-07 $l=3.70068e-07 $layer=LI1_cond $X=7.43 $Y=1.39
+ $X2=7.345 $Y2=1.06
r85 26 28 66.5455 $w=1.68e-07 $l=1.02e-06 $layer=LI1_cond $X=7.43 $Y=1.39
+ $X2=7.43 $Y2=2.41
r86 23 24 72.64 $w=1.7e-07 $l=3.4e-07 $layer=licon1_POLY $count=2 $X=6.99
+ $Y=1.225 $X2=6.99 $Y2=1.225
r87 21 34 0.364692 $w=3.3e-07 $l=1.65e-07 $layer=LI1_cond $X=7.345 $Y=1.225
+ $X2=7.345 $Y2=1.06
r88 21 23 12.3975 $w=3.28e-07 $l=3.55e-07 $layer=LI1_cond $X=7.345 $Y=1.225
+ $X2=6.99 $Y2=1.225
r89 19 24 56.8299 $w=3.3e-07 $l=3.25e-07 $layer=POLY_cond $X=6.665 $Y=1.225
+ $X2=6.99 $Y2=1.225
r90 19 20 5.03009 $w=3.3e-07 $l=9e-08 $layer=POLY_cond $X=6.665 $Y=1.225
+ $X2=6.575 $Y2=1.225
r91 17 18 60.4563 $w=1.8e-07 $l=1.5e-07 $layer=POLY_cond $X=6.535 $Y=1.6
+ $X2=6.535 $Y2=1.75
r92 13 20 37.0704 $w=1.5e-07 $l=1.72337e-07 $layer=POLY_cond $X=6.59 $Y=1.06
+ $X2=6.575 $Y2=1.225
r93 13 15 179.468 $w=1.5e-07 $l=3.5e-07 $layer=POLY_cond $X=6.59 $Y=1.06
+ $X2=6.59 $Y2=0.71
r94 11 20 37.0704 $w=1.5e-07 $l=1.72337e-07 $layer=POLY_cond $X=6.56 $Y=1.39
+ $X2=6.575 $Y2=1.225
r95 11 17 107.681 $w=1.5e-07 $l=2.1e-07 $layer=POLY_cond $X=6.56 $Y=1.39
+ $X2=6.56 $Y2=1.6
r96 9 18 388.71 $w=1.8e-07 $l=1e-06 $layer=POLY_cond $X=6.525 $Y=2.75 $X2=6.525
+ $Y2=1.75
r97 2 28 600 $w=1.7e-07 $l=3.5107e-07 $layer=licon1_PDIFF $count=1 $X=7.295
+ $Y=2.12 $X2=7.43 $Y2=2.41
r98 1 32 182 $w=1.7e-07 $l=4.59701e-07 $layer=licon1_NDIFF $count=1 $X=7.585
+ $Y=0.37 $X2=7.725 $Y2=0.765
.ends

.subckt PM_SKY130_FD_SC_MS__SDFXTP_2%A_1044_100# 1 2 9 12 15 16 17 19 22 25 28
+ 30 31 33 42
c103 33 0 7.63155e-20 $X=7.01 $Y=1.715
c104 28 0 1.87953e-19 $X=5.665 $Y=1.715
c105 19 0 5.96821e-20 $X=5.665 $Y=1.63
r106 41 42 46.3382 $w=3.3e-07 $l=2.65e-07 $layer=POLY_cond $X=7.205 $Y=1.795
+ $X2=7.47 $Y2=1.795
r107 37 41 34.0979 $w=3.3e-07 $l=1.95e-07 $layer=POLY_cond $X=7.01 $Y=1.795
+ $X2=7.205 $Y2=1.795
r108 36 37 145.28 $w=1.7e-07 $l=1.7e-07 $layer=licon1_POLY $count=1 $X=7.01
+ $Y=1.795 $X2=7.01 $Y2=1.795
r109 33 36 2.7938 $w=3.28e-07 $l=8e-08 $layer=LI1_cond $X=7.01 $Y=1.715 $X2=7.01
+ $Y2=1.795
r110 30 31 10.5918 $w=3.58e-07 $l=2.3e-07 $layer=LI1_cond $X=5.735 $Y=2.75
+ $X2=5.735 $Y2=2.52
r111 25 27 8.26222 $w=2.48e-07 $l=1.75e-07 $layer=LI1_cond $X=5.65 $Y=0.765
+ $X2=5.65 $Y2=0.94
r112 23 28 1.84097 $w=1.7e-07 $l=1.1e-07 $layer=LI1_cond $X=5.775 $Y=1.715
+ $X2=5.665 $Y2=1.715
r113 22 33 4.62375 $w=1.7e-07 $l=1.65e-07 $layer=LI1_cond $X=6.845 $Y=1.715
+ $X2=7.01 $Y2=1.715
r114 22 23 69.8075 $w=1.68e-07 $l=1.07e-06 $layer=LI1_cond $X=6.845 $Y=1.715
+ $X2=5.775 $Y2=1.715
r115 20 28 4.60183 $w=1.95e-07 $l=9.66954e-08 $layer=LI1_cond $X=5.64 $Y=1.8
+ $X2=5.665 $Y2=1.715
r116 20 31 46.9733 $w=1.68e-07 $l=7.2e-07 $layer=LI1_cond $X=5.64 $Y=1.8
+ $X2=5.64 $Y2=2.52
r117 19 28 4.60183 $w=1.95e-07 $l=8.5e-08 $layer=LI1_cond $X=5.665 $Y=1.63
+ $X2=5.665 $Y2=1.715
r118 19 27 36.1448 $w=2.18e-07 $l=6.9e-07 $layer=LI1_cond $X=5.665 $Y=1.63
+ $X2=5.665 $Y2=0.94
r119 16 17 53.9552 $w=1.9e-07 $l=1.5e-07 $layer=POLY_cond $X=7.49 $Y=0.995
+ $X2=7.49 $Y2=1.145
r120 15 16 112.467 $w=1.5e-07 $l=3.5e-07 $layer=POLY_cond $X=7.51 $Y=0.645
+ $X2=7.51 $Y2=0.995
r121 12 42 21.2229 $w=1.5e-07 $l=1.65e-07 $layer=POLY_cond $X=7.47 $Y=1.63
+ $X2=7.47 $Y2=1.795
r122 12 17 248.691 $w=1.5e-07 $l=4.85e-07 $layer=POLY_cond $X=7.47 $Y=1.63
+ $X2=7.47 $Y2=1.145
r123 7 41 16.9318 $w=1.8e-07 $l=1.65e-07 $layer=POLY_cond $X=7.205 $Y=1.96
+ $X2=7.205 $Y2=1.795
r124 7 9 225.452 $w=1.8e-07 $l=5.8e-07 $layer=POLY_cond $X=7.205 $Y=1.96
+ $X2=7.205 $Y2=2.54
r125 2 30 600 $w=1.7e-07 $l=2.69165e-07 $layer=licon1_PDIFF $count=1 $X=5.615
+ $Y=2.54 $X2=5.75 $Y2=2.75
r126 1 25 182 $w=1.7e-07 $l=5.05421e-07 $layer=licon1_NDIFF $count=1 $X=5.22
+ $Y=0.5 $X2=5.61 $Y2=0.765
.ends

.subckt PM_SKY130_FD_SC_MS__SDFXTP_2%A_1829_398# 1 2 7 9 13 15 17 20 22 24 27 29
+ 33 37 40 41 44 48 50 56 57
c102 41 0 1.57288e-19 $X=9.535 $Y=1.155
c103 37 0 1.66447e-19 $X=9.37 $Y=1.74
c104 29 0 1.40987e-19 $X=10.93 $Y=1.385
c105 13 0 1.58278e-19 $X=9.25 $Y=0.58
c106 9 0 2.29134e-20 $X=9.235 $Y=2.69
c107 7 0 1.68803e-19 $X=9.235 $Y=2.08
r108 56 57 11.2873 $w=3.48e-07 $l=2.5e-07 $layer=LI1_cond $X=10.27 $Y=2.665
+ $X2=10.27 $Y2=2.415
r109 50 51 72.64 $w=1.7e-07 $l=3.4e-07 $layer=licon1_POLY $count=2 $X=10.88
+ $Y=1.385 $X2=10.88 $Y2=1.385
r110 48 54 3.87119 $w=3.3e-07 $l=1.8262e-07 $layer=LI1_cond $X=10.445 $Y=1.385
+ $X2=10.36 $Y2=1.24
r111 48 50 15.1913 $w=3.28e-07 $l=4.35e-07 $layer=LI1_cond $X=10.445 $Y=1.385
+ $X2=10.88 $Y2=1.385
r112 46 54 3.01842 $w=1.7e-07 $l=3.1e-07 $layer=LI1_cond $X=10.36 $Y=1.55
+ $X2=10.36 $Y2=1.24
r113 46 57 56.4332 $w=1.68e-07 $l=8.65e-07 $layer=LI1_cond $X=10.36 $Y=1.55
+ $X2=10.36 $Y2=2.415
r114 42 54 19.1992 $w=2.51e-07 $l=3.95e-07 $layer=LI1_cond $X=9.965 $Y=1.24
+ $X2=10.36 $Y2=1.24
r115 42 44 19.382 $w=3.28e-07 $l=5.55e-07 $layer=LI1_cond $X=9.965 $Y=1.07
+ $X2=9.965 $Y2=0.515
r116 40 42 9.29704 $w=2.51e-07 $l=2.03101e-07 $layer=LI1_cond $X=9.8 $Y=1.155
+ $X2=9.965 $Y2=1.24
r117 40 41 17.2888 $w=1.68e-07 $l=2.65e-07 $layer=LI1_cond $X=9.8 $Y=1.155
+ $X2=9.535 $Y2=1.155
r118 37 38 145.28 $w=1.7e-07 $l=1.7e-07 $layer=licon1_POLY $count=1 $X=9.37
+ $Y=1.74 $X2=9.37 $Y2=1.74
r119 35 41 7.55824 $w=1.7e-07 $l=1.90825e-07 $layer=LI1_cond $X=9.382 $Y=1.24
+ $X2=9.535 $Y2=1.155
r120 35 37 18.8925 $w=3.03e-07 $l=5e-07 $layer=LI1_cond $X=9.382 $Y=1.24
+ $X2=9.382 $Y2=1.74
r121 32 33 2.62292 $w=3.3e-07 $l=1.5e-08 $layer=POLY_cond $X=11.48 $Y=1.385
+ $X2=11.495 $Y2=1.385
r122 31 32 76.0647 $w=3.3e-07 $l=4.35e-07 $layer=POLY_cond $X=11.045 $Y=1.385
+ $X2=11.48 $Y2=1.385
r123 30 31 6.99445 $w=3.3e-07 $l=4e-08 $layer=POLY_cond $X=11.005 $Y=1.385
+ $X2=11.045 $Y2=1.385
r124 29 51 8.74306 $w=3.3e-07 $l=5e-08 $layer=POLY_cond $X=10.93 $Y=1.385
+ $X2=10.88 $Y2=1.385
r125 29 30 13.1146 $w=3.3e-07 $l=7.5e-08 $layer=POLY_cond $X=10.93 $Y=1.385
+ $X2=11.005 $Y2=1.385
r126 25 33 16.9318 $w=1.8e-07 $l=1.65e-07 $layer=POLY_cond $X=11.495 $Y=1.55
+ $X2=11.495 $Y2=1.385
r127 25 27 330.403 $w=1.8e-07 $l=8.5e-07 $layer=POLY_cond $X=11.495 $Y=1.55
+ $X2=11.495 $Y2=2.4
r128 22 32 21.2229 $w=1.5e-07 $l=1.65e-07 $layer=POLY_cond $X=11.48 $Y=1.22
+ $X2=11.48 $Y2=1.385
r129 22 24 154.24 $w=1.5e-07 $l=4.8e-07 $layer=POLY_cond $X=11.48 $Y=1.22
+ $X2=11.48 $Y2=0.74
r130 18 31 16.9318 $w=1.8e-07 $l=1.65e-07 $layer=POLY_cond $X=11.045 $Y=1.55
+ $X2=11.045 $Y2=1.385
r131 18 20 330.403 $w=1.8e-07 $l=8.5e-07 $layer=POLY_cond $X=11.045 $Y=1.55
+ $X2=11.045 $Y2=2.4
r132 15 30 21.2229 $w=1.5e-07 $l=1.65e-07 $layer=POLY_cond $X=11.005 $Y=1.22
+ $X2=11.005 $Y2=1.385
r133 15 17 154.24 $w=1.5e-07 $l=4.8e-07 $layer=POLY_cond $X=11.005 $Y=1.22
+ $X2=11.005 $Y2=0.74
r134 11 38 38.5991 $w=2.92e-07 $l=2.05122e-07 $layer=POLY_cond $X=9.25 $Y=1.575
+ $X2=9.34 $Y2=1.74
r135 11 13 510.202 $w=1.5e-07 $l=9.95e-07 $layer=POLY_cond $X=9.25 $Y=1.575
+ $X2=9.25 $Y2=0.58
r136 7 38 63.1688 $w=2.92e-07 $l=3.88973e-07 $layer=POLY_cond $X=9.235 $Y=2.08
+ $X2=9.34 $Y2=1.74
r137 7 9 237.113 $w=1.8e-07 $l=6.1e-07 $layer=POLY_cond $X=9.235 $Y=2.08
+ $X2=9.235 $Y2=2.69
r138 2 56 600 $w=1.7e-07 $l=8.29759e-07 $layer=licon1_PDIFF $count=1 $X=10.125
+ $Y=1.9 $X2=10.26 $Y2=2.665
r139 1 44 91 $w=1.7e-07 $l=2.03286e-07 $layer=licon1_NDIFF $count=2 $X=9.825
+ $Y=0.37 $X2=9.965 $Y2=0.515
.ends

.subckt PM_SKY130_FD_SC_MS__SDFXTP_2%A_1595_424# 1 2 7 9 10 12 14 17 19 20 24 27
+ 33 35
c88 24 0 2.99265e-19 $X=9.94 $Y=1.575
c89 12 0 1.66447e-19 $X=10.035 $Y=2.4
r90 27 30 5.9927 $w=2.48e-07 $l=1.3e-07 $layer=LI1_cond $X=8.15 $Y=2.575
+ $X2=8.15 $Y2=2.705
r91 24 25 145.28 $w=1.7e-07 $l=1.7e-07 $layer=licon1_POLY $count=1 $X=9.94
+ $Y=1.575 $X2=9.94 $Y2=1.575
r92 22 24 17.4613 $w=3.28e-07 $l=5e-07 $layer=LI1_cond $X=9.94 $Y=2.075 $X2=9.94
+ $Y2=1.575
r93 21 35 1.34256 $w=1.7e-07 $l=8.5e-08 $layer=LI1_cond $X=9.06 $Y=2.16
+ $X2=8.975 $Y2=2.16
r94 20 22 7.76618 $w=1.7e-07 $l=2.03101e-07 $layer=LI1_cond $X=9.775 $Y=2.16
+ $X2=9.94 $Y2=2.075
r95 20 21 46.6471 $w=1.68e-07 $l=7.15e-07 $layer=LI1_cond $X=9.775 $Y=2.16
+ $X2=9.06 $Y2=2.16
r96 18 35 5.16603 $w=1.7e-07 $l=8.5e-08 $layer=LI1_cond $X=8.975 $Y=2.245
+ $X2=8.975 $Y2=2.16
r97 18 19 15.984 $w=1.68e-07 $l=2.45e-07 $layer=LI1_cond $X=8.975 $Y=2.245
+ $X2=8.975 $Y2=2.49
r98 17 35 5.16603 $w=1.7e-07 $l=8.5e-08 $layer=LI1_cond $X=8.975 $Y=2.075
+ $X2=8.975 $Y2=2.16
r99 16 33 14.5831 $w=3.43e-07 $l=5.1225e-07 $layer=LI1_cond $X=8.975 $Y=0.81
+ $X2=8.565 $Y2=0.58
r100 16 17 82.5294 $w=1.68e-07 $l=1.265e-06 $layer=LI1_cond $X=8.975 $Y=0.81
+ $X2=8.975 $Y2=2.075
r101 15 27 2.99516 $w=1.7e-07 $l=1.25e-07 $layer=LI1_cond $X=8.275 $Y=2.575
+ $X2=8.15 $Y2=2.575
r102 14 19 6.81649 $w=1.7e-07 $l=1.20208e-07 $layer=LI1_cond $X=8.89 $Y=2.575
+ $X2=8.975 $Y2=2.49
r103 14 15 40.123 $w=1.68e-07 $l=6.15e-07 $layer=LI1_cond $X=8.89 $Y=2.575
+ $X2=8.275 $Y2=2.575
r104 10 25 34.2327 $w=2.95e-07 $l=2.22486e-07 $layer=POLY_cond $X=10.035 $Y=1.74
+ $X2=9.9 $Y2=1.575
r105 10 12 256.548 $w=1.8e-07 $l=6.6e-07 $layer=POLY_cond $X=10.035 $Y=1.74
+ $X2=10.035 $Y2=2.4
r106 7 25 75.3407 $w=2.95e-07 $l=4.58912e-07 $layer=POLY_cond $X=9.75 $Y=1.185
+ $X2=9.9 $Y2=1.575
r107 7 9 142.993 $w=1.5e-07 $l=4.45e-07 $layer=POLY_cond $X=9.75 $Y=1.185
+ $X2=9.75 $Y2=0.74
r108 2 30 600 $w=1.7e-07 $l=6.48999e-07 $layer=licon1_PDIFF $count=1 $X=7.975
+ $Y=2.12 $X2=8.11 $Y2=2.705
r109 1 33 182 $w=1.7e-07 $l=2.71109e-07 $layer=licon1_NDIFF $count=1 $X=8.425
+ $Y=0.37 $X2=8.565 $Y2=0.58
.ends

.subckt PM_SKY130_FD_SC_MS__SDFXTP_2%VPWR 1 2 3 4 5 6 7 24 28 32 36 40 44 46 51
+ 52 54 55 56 58 70 81 85 90 96 99 106 111 115
c136 24 0 1.79254e-19 $X=0.78 $Y=2.44
r137 114 115 9.3 $w=1.7e-07 $l=1.7e-07 $layer=mcon $count=1 $X=11.76 $Y=3.33
+ $X2=11.76 $Y2=3.33
r138 111 112 9.3 $w=1.7e-07 $l=1.7e-07 $layer=mcon $count=1 $X=10.8 $Y=3.33
+ $X2=10.8 $Y2=3.33
r139 107 109 0.133793 $w=4.9e-07 $l=4.8e-07 $layer=MET1_cond $X=9.84 $Y=3.33
+ $X2=9.36 $Y2=3.33
r140 106 109 3.1 $w=1.7e-07 $l=5.1e-07 $layer=mcon $count=3 $X=9.36 $Y=3.33
+ $X2=9.36 $Y2=3.33
r141 106 107 9.3 $w=1.7e-07 $l=1.7e-07 $layer=mcon $count=1 $X=9.84 $Y=3.33
+ $X2=9.84 $Y2=3.33
r142 102 103 9.3 $w=1.7e-07 $l=1.7e-07 $layer=mcon $count=1 $X=4.08 $Y=3.33
+ $X2=4.08 $Y2=3.33
r143 99 102 9.54318 $w=4.68e-07 $l=3.75e-07 $layer=LI1_cond $X=4.135 $Y=2.955
+ $X2=4.135 $Y2=3.33
r144 96 97 9.3 $w=1.7e-07 $l=1.7e-07 $layer=mcon $count=1 $X=0.72 $Y=3.33
+ $X2=0.72 $Y2=3.33
r145 94 115 0.133793 $w=4.9e-07 $l=4.8e-07 $layer=MET1_cond $X=11.28 $Y=3.33
+ $X2=11.76 $Y2=3.33
r146 94 112 0.133793 $w=4.9e-07 $l=4.8e-07 $layer=MET1_cond $X=11.28 $Y=3.33
+ $X2=10.8 $Y2=3.33
r147 93 94 9.3 $w=1.7e-07 $l=1.7e-07 $layer=mcon $count=1 $X=11.28 $Y=3.33
+ $X2=11.28 $Y2=3.33
r148 91 111 7.02821 $w=1.7e-07 $l=1.25e-07 $layer=LI1_cond $X=10.905 $Y=3.33
+ $X2=10.78 $Y2=3.33
r149 91 93 24.4652 $w=1.68e-07 $l=3.75e-07 $layer=LI1_cond $X=10.905 $Y=3.33
+ $X2=11.28 $Y2=3.33
r150 90 114 4.01252 $w=1.7e-07 $l=1.82e-07 $layer=LI1_cond $X=11.635 $Y=3.33
+ $X2=11.817 $Y2=3.33
r151 90 93 23.1604 $w=1.68e-07 $l=3.55e-07 $layer=LI1_cond $X=11.635 $Y=3.33
+ $X2=11.28 $Y2=3.33
r152 89 112 0.133793 $w=4.9e-07 $l=4.8e-07 $layer=MET1_cond $X=10.32 $Y=3.33
+ $X2=10.8 $Y2=3.33
r153 89 107 0.133793 $w=4.9e-07 $l=4.8e-07 $layer=MET1_cond $X=10.32 $Y=3.33
+ $X2=9.84 $Y2=3.33
r154 88 89 9.3 $w=1.7e-07 $l=1.7e-07 $layer=mcon $count=1 $X=10.32 $Y=3.33
+ $X2=10.32 $Y2=3.33
r155 86 106 12.9051 $w=1.7e-07 $l=3.15e-07 $layer=LI1_cond $X=9.925 $Y=3.33
+ $X2=9.61 $Y2=3.33
r156 86 88 25.7701 $w=1.68e-07 $l=3.95e-07 $layer=LI1_cond $X=9.925 $Y=3.33
+ $X2=10.32 $Y2=3.33
r157 85 111 7.02821 $w=1.7e-07 $l=1.25e-07 $layer=LI1_cond $X=10.655 $Y=3.33
+ $X2=10.78 $Y2=3.33
r158 85 88 21.8556 $w=1.68e-07 $l=3.35e-07 $layer=LI1_cond $X=10.655 $Y=3.33
+ $X2=10.32 $Y2=3.33
r159 84 109 0.668963 $w=4.9e-07 $l=2.4e-06 $layer=MET1_cond $X=6.96 $Y=3.33
+ $X2=9.36 $Y2=3.33
r160 83 84 3.1 $w=1.7e-07 $l=5.1e-07 $layer=mcon $count=3 $X=6.96 $Y=3.33
+ $X2=6.96 $Y2=3.33
r161 81 106 12.9051 $w=1.7e-07 $l=3.15e-07 $layer=LI1_cond $X=9.295 $Y=3.33