* File: sky130_fd_sc_ms__a31oi_4.pex.spice
* Created: Wed Sep  2 11:55:34 2020
* Program "Calibre xRC"
* Version "v2018.4_34.26"
* Nominal Temperature: 27C
* Circuit Temperature: 27C
* 
.subckt PM_SKY130_FD_SC_MS__A31OI_4%A3 3 7 11 15 19 23 27 31 33 34 35 51 53
c79 31 0 1.69199e-19 $X=1.87 $Y=0.74
r80 52 53 2.62292 $w=3.3e-07 $l=1.5e-08 $layer=POLY_cond $X=1.855 $Y=1.515
+ $X2=1.87 $Y2=1.515
r81 50 52 41.0924 $w=3.3e-07 $l=2.35e-07 $layer=POLY_cond $X=1.62 $Y=1.515
+ $X2=1.855 $Y2=1.515
r82 50 51 72.64 $w=1.7e-07 $l=3.4e-07 $layer=licon1_POLY $count=2 $X=1.62
+ $Y=1.515 $X2=1.62 $Y2=1.515
r83 48 50 37.5952 $w=3.3e-07 $l=2.15e-07 $layer=POLY_cond $X=1.405 $Y=1.515
+ $X2=1.62 $Y2=1.515
r84 47 48 6.12014 $w=3.3e-07 $l=3.5e-08 $layer=POLY_cond $X=1.37 $Y=1.515
+ $X2=1.405 $Y2=1.515
r85 46 47 72.5674 $w=3.3e-07 $l=4.15e-07 $layer=POLY_cond $X=0.955 $Y=1.515
+ $X2=1.37 $Y2=1.515
r86 45 46 2.62292 $w=3.3e-07 $l=1.5e-08 $layer=POLY_cond $X=0.94 $Y=1.515
+ $X2=0.955 $Y2=1.515
r87 43 45 59.4528 $w=3.3e-07 $l=3.4e-07 $layer=POLY_cond $X=0.6 $Y=1.515
+ $X2=0.94 $Y2=1.515
r88 43 44 72.64 $w=1.7e-07 $l=3.4e-07 $layer=licon1_POLY $count=2 $X=0.6
+ $Y=1.515 $X2=0.6 $Y2=1.515
r89 41 43 15.7375 $w=3.3e-07 $l=9e-08 $layer=POLY_cond $X=0.51 $Y=1.515 $X2=0.6
+ $Y2=1.515
r90 39 41 0.874306 $w=3.3e-07 $l=5e-09 $layer=POLY_cond $X=0.505 $Y=1.515
+ $X2=0.51 $Y2=1.515
r91 35 51 11.2564 $w=4.28e-07 $l=4.2e-07 $layer=LI1_cond $X=1.2 $Y=1.565
+ $X2=1.62 $Y2=1.565
r92 34 35 12.8645 $w=4.28e-07 $l=4.8e-07 $layer=LI1_cond $X=0.72 $Y=1.565
+ $X2=1.2 $Y2=1.565
r93 34 44 3.21612 $w=4.28e-07 $l=1.2e-07 $layer=LI1_cond $X=0.72 $Y=1.565
+ $X2=0.6 $Y2=1.565
r94 33 44 9.64836 $w=4.28e-07 $l=3.6e-07 $layer=LI1_cond $X=0.24 $Y=1.565
+ $X2=0.6 $Y2=1.565
r95 29 53 21.2229 $w=1.5e-07 $l=1.65e-07 $layer=POLY_cond $X=1.87 $Y=1.35
+ $X2=1.87 $Y2=1.515
r96 29 31 312.787 $w=1.5e-07 $l=6.1e-07 $layer=POLY_cond $X=1.87 $Y=1.35
+ $X2=1.87 $Y2=0.74
r97 25 52 16.9318 $w=1.8e-07 $l=1.65e-07 $layer=POLY_cond $X=1.855 $Y=1.68
+ $X2=1.855 $Y2=1.515
r98 25 27 279.871 $w=1.8e-07 $l=7.2e-07 $layer=POLY_cond $X=1.855 $Y=1.68
+ $X2=1.855 $Y2=2.4
r99 21 48 16.9318 $w=1.8e-07 $l=1.65e-07 $layer=POLY_cond $X=1.405 $Y=1.68
+ $X2=1.405 $Y2=1.515
r100 21 23 279.871 $w=1.8e-07 $l=7.2e-07 $layer=POLY_cond $X=1.405 $Y=1.68
+ $X2=1.405 $Y2=2.4
r101 17 47 21.2229 $w=1.5e-07 $l=1.65e-07 $layer=POLY_cond $X=1.37 $Y=1.35
+ $X2=1.37 $Y2=1.515
r102 17 19 312.787 $w=1.5e-07 $l=6.1e-07 $layer=POLY_cond $X=1.37 $Y=1.35
+ $X2=1.37 $Y2=0.74
r103 13 46 16.9318 $w=1.8e-07 $l=1.65e-07 $layer=POLY_cond $X=0.955 $Y=1.68
+ $X2=0.955 $Y2=1.515
r104 13 15 279.871 $w=1.8e-07 $l=7.2e-07 $layer=POLY_cond $X=0.955 $Y=1.68
+ $X2=0.955 $Y2=2.4
r105 9 45 21.2229 $w=1.5e-07 $l=1.65e-07 $layer=POLY_cond $X=0.94 $Y=1.35
+ $X2=0.94 $Y2=1.515
r106 9 11 312.787 $w=1.5e-07 $l=6.1e-07 $layer=POLY_cond $X=0.94 $Y=1.35
+ $X2=0.94 $Y2=0.74
r107 5 41 21.2229 $w=1.5e-07 $l=1.65e-07 $layer=POLY_cond $X=0.51 $Y=1.35
+ $X2=0.51 $Y2=1.515
r108 5 7 312.787 $w=1.5e-07 $l=6.1e-07 $layer=POLY_cond $X=0.51 $Y=1.35 $X2=0.51
+ $Y2=0.74
r109 1 39 16.9318 $w=1.8e-07 $l=1.65e-07 $layer=POLY_cond $X=0.505 $Y=1.68
+ $X2=0.505 $Y2=1.515
r110 1 3 279.871 $w=1.8e-07 $l=7.2e-07 $layer=POLY_cond $X=0.505 $Y=1.68
+ $X2=0.505 $Y2=2.4
.ends

.subckt PM_SKY130_FD_SC_MS__A31OI_4%A2 3 7 11 15 19 23 27 31 33 34 35 36 53
c88 36 0 9.97374e-21 $X=4.08 $Y=1.665
c89 31 0 2.64335e-19 $X=3.755 $Y=2.4
r90 51 53 26.4512 $w=3.28e-07 $l=1.8e-07 $layer=POLY_cond $X=3.56 $Y=1.517
+ $X2=3.74 $Y2=1.517
r91 51 52 72.64 $w=1.7e-07 $l=3.4e-07 $layer=licon1_POLY $count=2 $X=3.56
+ $Y=1.515 $X2=3.56 $Y2=1.515
r92 47 48 53.6372 $w=3.28e-07 $l=3.65e-07 $layer=POLY_cond $X=2.805 $Y=1.517
+ $X2=3.17 $Y2=1.517
r93 46 47 9.55183 $w=3.28e-07 $l=6.5e-08 $layer=POLY_cond $X=2.74 $Y=1.517
+ $X2=2.805 $Y2=1.517
r94 44 46 29.3902 $w=3.28e-07 $l=2e-07 $layer=POLY_cond $X=2.54 $Y=1.517
+ $X2=2.74 $Y2=1.517
r95 44 45 72.64 $w=1.7e-07 $l=3.4e-07 $layer=licon1_POLY $count=2 $X=2.54
+ $Y=1.515 $X2=2.54 $Y2=1.515
r96 42 44 34.5335 $w=3.28e-07 $l=2.35e-07 $layer=POLY_cond $X=2.305 $Y=1.517
+ $X2=2.54 $Y2=1.517
r97 41 42 0.734756 $w=3.28e-07 $l=5e-09 $layer=POLY_cond $X=2.3 $Y=1.517
+ $X2=2.305 $Y2=1.517
r98 35 36 12.8645 $w=4.28e-07 $l=4.8e-07 $layer=LI1_cond $X=3.6 $Y=1.565
+ $X2=4.08 $Y2=1.565
r99 35 52 1.07204 $w=4.28e-07 $l=4e-08 $layer=LI1_cond $X=3.6 $Y=1.565 $X2=3.56
+ $Y2=1.565
r100 34 52 11.7924 $w=4.28e-07 $l=4.4e-07 $layer=LI1_cond $X=3.12 $Y=1.565
+ $X2=3.56 $Y2=1.565
r101 33 34 12.8645 $w=4.28e-07 $l=4.8e-07 $layer=LI1_cond $X=2.64 $Y=1.565
+ $X2=3.12 $Y2=1.565
r102 33 45 2.6801 $w=4.28e-07 $l=1e-07 $layer=LI1_cond $X=2.64 $Y=1.565 $X2=2.54
+ $Y2=1.565
r103 29 53 2.20427 $w=3.28e-07 $l=1.5e-08 $layer=POLY_cond $X=3.755 $Y=1.517
+ $X2=3.74 $Y2=1.517
r104 29 31 279.871 $w=1.8e-07 $l=7.2e-07 $layer=POLY_cond $X=3.755 $Y=1.68
+ $X2=3.755 $Y2=2.4
r105 25 53 21.0783 $w=1.5e-07 $l=1.67e-07 $layer=POLY_cond $X=3.74 $Y=1.35
+ $X2=3.74 $Y2=1.517
r106 25 27 312.787 $w=1.5e-07 $l=6.1e-07 $layer=POLY_cond $X=3.74 $Y=1.35
+ $X2=3.74 $Y2=0.74
r107 21 51 44.8201 $w=3.28e-07 $l=3.05e-07 $layer=POLY_cond $X=3.255 $Y=1.517
+ $X2=3.56 $Y2=1.517
r108 21 48 12.4909 $w=3.28e-07 $l=8.5e-08 $layer=POLY_cond $X=3.255 $Y=1.517
+ $X2=3.17 $Y2=1.517
r109 21 23 279.871 $w=1.8e-07 $l=7.2e-07 $layer=POLY_cond $X=3.255 $Y=1.68
+ $X2=3.255 $Y2=2.4
r110 17 48 21.0783 $w=1.5e-07 $l=1.67e-07 $layer=POLY_cond $X=3.17 $Y=1.35
+ $X2=3.17 $Y2=1.517
r111 17 19 312.787 $w=1.5e-07 $l=6.1e-07 $layer=POLY_cond $X=3.17 $Y=1.35
+ $X2=3.17 $Y2=0.74
r112 13 47 16.7902 $w=1.8e-07 $l=1.68e-07 $layer=POLY_cond $X=2.805 $Y=1.685
+ $X2=2.805 $Y2=1.517
r113 13 15 277.927 $w=1.8e-07 $l=7.15e-07 $layer=POLY_cond $X=2.805 $Y=1.685
+ $X2=2.805 $Y2=2.4
r114 9 46 21.0783 $w=1.5e-07 $l=1.67e-07 $layer=POLY_cond $X=2.74 $Y=1.35
+ $X2=2.74 $Y2=1.517
r115 9 11 312.787 $w=1.5e-07 $l=6.1e-07 $layer=POLY_cond $X=2.74 $Y=1.35
+ $X2=2.74 $Y2=0.74
r116 5 41 21.0783 $w=1.5e-07 $l=1.67e-07 $layer=POLY_cond $X=2.3 $Y=1.35 $X2=2.3
+ $Y2=1.517
r117 5 7 312.787 $w=1.5e-07 $l=6.1e-07 $layer=POLY_cond $X=2.3 $Y=1.35 $X2=2.3
+ $Y2=0.74
r118 1 42 16.7902 $w=1.8e-07 $l=1.68e-07 $layer=POLY_cond $X=2.305 $Y=1.685
+ $X2=2.305 $Y2=1.517
r119 1 3 277.927 $w=1.8e-07 $l=7.15e-07 $layer=POLY_cond $X=2.305 $Y=1.685
+ $X2=2.305 $Y2=2.4
.ends

.subckt PM_SKY130_FD_SC_MS__A31OI_4%A1 1 3 4 5 8 10 12 13 17 21 25 29 33 35 36
+ 37 38 51
c111 38 0 1.82133e-19 $X=6 $Y=1.665
c112 21 0 6.83918e-20 $X=5.735 $Y=2.4
c113 10 0 1.4019e-19 $X=4.755 $Y=1.765
r114 50 51 45.8041 $w=3.42e-07 $l=3.25e-07 $layer=POLY_cond $X=5.96 $Y=1.5
+ $X2=6.285 $Y2=1.5
r115 48 50 12.6842 $w=3.42e-07 $l=9e-08 $layer=POLY_cond $X=5.87 $Y=1.5 $X2=5.96
+ $Y2=1.5
r116 48 49 145.28 $w=1.7e-07 $l=1.7e-07 $layer=licon1_POLY $count=1 $X=5.87
+ $Y=1.515 $X2=5.87 $Y2=1.515
r117 46 48 19.0263 $w=3.42e-07 $l=1.35e-07 $layer=POLY_cond $X=5.735 $Y=1.5
+ $X2=5.87 $Y2=1.5
r118 45 49 9.11234 $w=4.28e-07 $l=3.4e-07 $layer=LI1_cond $X=5.53 $Y=1.565
+ $X2=5.87 $Y2=1.565
r119 44 46 28.8918 $w=3.42e-07 $l=2.05e-07 $layer=POLY_cond $X=5.53 $Y=1.5
+ $X2=5.735 $Y2=1.5
r120 44 45 72.64 $w=1.7e-07 $l=3.4e-07 $layer=licon1_POLY $count=2 $X=5.53
+ $Y=1.515 $X2=5.53 $Y2=1.515
r121 42 44 9.8655 $w=3.42e-07 $l=7e-08 $layer=POLY_cond $X=5.46 $Y=1.5 $X2=5.53
+ $Y2=1.5
r122 38 49 3.48413 $w=4.28e-07 $l=1.3e-07 $layer=LI1_cond $X=6 $Y=1.565 $X2=5.87
+ $Y2=1.565
r123 37 45 0.26801 $w=4.28e-07 $l=1e-08 $layer=LI1_cond $X=5.52 $Y=1.565
+ $X2=5.53 $Y2=1.565
r124 36 37 12.8645 $w=4.28e-07 $l=4.8e-07 $layer=LI1_cond $X=5.04 $Y=1.565
+ $X2=5.52 $Y2=1.565
r125 31 51 14.7982 $w=3.42e-07 $l=2.26495e-07 $layer=POLY_cond $X=6.39 $Y=1.32
+ $X2=6.285 $Y2=1.5
r126 31 33 297.404 $w=1.5e-07 $l=5.8e-07 $layer=POLY_cond $X=6.39 $Y=1.32
+ $X2=6.39 $Y2=0.74
r127 27 51 17.7656 $w=1.8e-07 $l=1.8e-07 $layer=POLY_cond $X=6.285 $Y=1.68
+ $X2=6.285 $Y2=1.5
r128 27 29 279.871 $w=1.8e-07 $l=7.2e-07 $layer=POLY_cond $X=6.285 $Y=1.68
+ $X2=6.285 $Y2=2.4
r129 23 50 22.0749 $w=1.5e-07 $l=1.8e-07 $layer=POLY_cond $X=5.96 $Y=1.32
+ $X2=5.96 $Y2=1.5
r130 23 25 297.404 $w=1.5e-07 $l=5.8e-07 $layer=POLY_cond $X=5.96 $Y=1.32
+ $X2=5.96 $Y2=0.74
r131 19 46 17.7656 $w=1.8e-07 $l=1.8e-07 $layer=POLY_cond $X=5.735 $Y=1.68
+ $X2=5.735 $Y2=1.5
r132 19 21 279.871 $w=1.8e-07 $l=7.2e-07 $layer=POLY_cond $X=5.735 $Y=1.68
+ $X2=5.735 $Y2=2.4
r133 15 42 22.0749 $w=1.5e-07 $l=1.8e-07 $layer=POLY_cond $X=5.46 $Y=1.32
+ $X2=5.46 $Y2=1.5
r134 15 17 297.404 $w=1.5e-07 $l=5.8e-07 $layer=POLY_cond $X=5.46 $Y=1.32
+ $X2=5.46 $Y2=0.74
r135 14 35 7.25827 $w=3.6e-07 $l=1.08995e-07 $layer=POLY_cond $X=4.845 $Y=1.5
+ $X2=4.755 $Y2=1.542
r136 13 42 10.2098 $w=3.6e-07 $l=7.5e-08 $layer=POLY_cond $X=5.385 $Y=1.5
+ $X2=5.46 $Y2=1.5
r137 13 14 86.5563 $w=3.6e-07 $l=5.4e-07 $layer=POLY_cond $X=5.385 $Y=1.5
+ $X2=4.845 $Y2=1.5
r138 10 35 17.6619 $w=1.8e-07 $l=2.23e-07 $layer=POLY_cond $X=4.755 $Y=1.765
+ $X2=4.755 $Y2=1.542
r139 10 12 170.039 $w=1.8e-07 $l=6.35e-07 $layer=POLY_cond $X=4.755 $Y=1.765
+ $X2=4.755 $Y2=2.4
r140 6 35 17.6619 $w=1.5e-07 $l=2.29377e-07 $layer=POLY_cond $X=4.74 $Y=1.32
+ $X2=4.755 $Y2=1.542
r141 6 8 297.404 $w=1.5e-07 $l=5.8e-07 $layer=POLY_cond $X=4.74 $Y=1.32 $X2=4.74
+ $Y2=0.74
r142 4 35 7.25827 $w=1.5e-07 $l=1.87681e-07 $layer=POLY_cond $X=4.665 $Y=1.69
+ $X2=4.755 $Y2=1.542
r143 4 5 164.085 $w=1.5e-07 $l=3.2e-07 $layer=POLY_cond $X=4.665 $Y=1.69
+ $X2=4.345 $Y2=1.69
r144 1 5 27.2212 $w=1.5e-07 $l=1.21861e-07 $layer=POLY_cond $X=4.255 $Y=1.765
+ $X2=4.345 $Y2=1.69
r145 1 3 170.039 $w=1.8e-07 $l=6.35e-07 $layer=POLY_cond $X=4.255 $Y=1.765
+ $X2=4.255 $Y2=2.4
.ends

.subckt PM_SKY130_FD_SC_MS__A31OI_4%B1 3 7 11 15 19 23 25 26 27 28 29 45
c63 45 0 1.82133e-19 $X=8.135 $Y=1.515
c64 29 0 6.83918e-20 $X=8.4 $Y=1.665
c65 7 0 1.25471e-19 $X=6.89 $Y=0.74
r66 45 46 1.46505 $w=3.29e-07 $l=1e-08 $layer=POLY_cond $X=8.135 $Y=1.515
+ $X2=8.145 $Y2=1.515
r67 44 45 65.9271 $w=3.29e-07 $l=4.5e-07 $layer=POLY_cond $X=7.685 $Y=1.515
+ $X2=8.135 $Y2=1.515
r68 42 44 24.1733 $w=3.29e-07 $l=1.65e-07 $layer=POLY_cond $X=7.52 $Y=1.515
+ $X2=7.685 $Y2=1.515
r69 42 43 96.8533 $w=1.7e-07 $l=2.55e-07 $layer=licon1_POLY $count=1 $X=7.52
+ $Y=1.515 $X2=7.52 $Y2=1.515
r70 40 42 41.7538 $w=3.29e-07 $l=2.85e-07 $layer=POLY_cond $X=7.235 $Y=1.515
+ $X2=7.52 $Y2=1.515
r71 39 40 50.5441 $w=3.29e-07 $l=3.45e-07 $layer=POLY_cond $X=6.89 $Y=1.515
+ $X2=7.235 $Y2=1.515
r72 37 39 7.32523 $w=3.29e-07 $l=5e-08 $layer=POLY_cond $X=6.84 $Y=1.515
+ $X2=6.89 $Y2=1.515
r73 37 38 96.8533 $w=1.7e-07 $l=2.55e-07 $layer=licon1_POLY $count=1 $X=6.84
+ $Y=1.515 $X2=6.84 $Y2=1.515
r74 35 37 10.9878 $w=3.29e-07 $l=7.5e-08 $layer=POLY_cond $X=6.765 $Y=1.515
+ $X2=6.84 $Y2=1.515
r75 28 29 12.8645 $w=4.28e-07 $l=4.8e-07 $layer=LI1_cond $X=7.92 $Y=1.565
+ $X2=8.4 $Y2=1.565
r76 28 43 10.7204 $w=4.28e-07 $l=4e-07 $layer=LI1_cond $X=7.92 $Y=1.565 $X2=7.52
+ $Y2=1.565
r77 27 43 2.14408 $w=4.28e-07 $l=8e-08 $layer=LI1_cond $X=7.44 $Y=1.565 $X2=7.52
+ $Y2=1.565
r78 26 27 12.8645 $w=4.28e-07 $l=4.8e-07 $layer=LI1_cond $X=6.96 $Y=1.565
+ $X2=7.44 $Y2=1.565
r79 26 38 3.21612 $w=4.28e-07 $l=1.2e-07 $layer=LI1_cond $X=6.96 $Y=1.565
+ $X2=6.84 $Y2=1.565
r80 25 38 9.64836 $w=4.28e-07 $l=3.6e-07 $layer=LI1_cond $X=6.48 $Y=1.565
+ $X2=6.84 $Y2=1.565
r81 21 46 21.1507 $w=1.5e-07 $l=1.65e-07 $layer=POLY_cond $X=8.145 $Y=1.35
+ $X2=8.145 $Y2=1.515
r82 21 23 312.787 $w=1.5e-07 $l=6.1e-07 $layer=POLY_cond $X=8.145 $Y=1.35
+ $X2=8.145 $Y2=0.74
r83 17 45 16.8611 $w=1.8e-07 $l=1.65e-07 $layer=POLY_cond $X=8.135 $Y=1.68
+ $X2=8.135 $Y2=1.515
r84 17 19 279.871 $w=1.8e-07 $l=7.2e-07 $layer=POLY_cond $X=8.135 $Y=1.68
+ $X2=8.135 $Y2=2.4
r85 13 44 16.8611 $w=1.8e-07 $l=1.65e-07 $layer=POLY_cond $X=7.685 $Y=1.68
+ $X2=7.685 $Y2=1.515
r86 13 15 279.871 $w=1.8e-07 $l=7.2e-07 $layer=POLY_cond $X=7.685 $Y=1.68
+ $X2=7.685 $Y2=2.4
r87 9 40 16.8611 $w=1.8e-07 $l=1.65e-07 $layer=POLY_cond $X=7.235 $Y=1.68
+ $X2=7.235 $Y2=1.515
r88 9 11 279.871 $w=1.8e-07 $l=7.2e-07 $layer=POLY_cond $X=7.235 $Y=1.68
+ $X2=7.235 $Y2=2.4
r89 5 39 21.1507 $w=1.5e-07 $l=1.65e-07 $layer=POLY_cond $X=6.89 $Y=1.35
+ $X2=6.89 $Y2=1.515
r90 5 7 312.787 $w=1.5e-07 $l=6.1e-07 $layer=POLY_cond $X=6.89 $Y=1.35 $X2=6.89
+ $Y2=0.74
r91 1 35 16.8611 $w=1.8e-07 $l=1.65e-07 $layer=POLY_cond $X=6.765 $Y=1.68
+ $X2=6.765 $Y2=1.515
r92 1 3 279.871 $w=1.8e-07 $l=7.2e-07 $layer=POLY_cond $X=6.765 $Y=1.68
+ $X2=6.765 $Y2=2.4
.ends

.subckt PM_SKY130_FD_SC_MS__A31OI_4%A_27_368# 1 2 3 4 5 6 7 8 9 28 30 32 36 38
+ 40 42 44 48 50 52 53 58 60 61 62 63 66 68 72 79 85 89 92 93 96
c119 89 0 1.72297e-19 $X=4.03 $Y=2.44
c120 85 0 9.20378e-20 $X=3.03 $Y=2.035
c121 52 0 1.30216e-19 $X=4.03 $Y=2.12
c122 40 0 1.06564e-19 $X=2.08 $Y=2.15
r123 91 93 10.4169 $w=6.38e-07 $l=1.65e-07 $layer=LI1_cond $X=5.51 $Y=2.61
+ $X2=5.675 $Y2=2.61
r124 91 92 19.3874 $w=6.38e-07 $l=6.45e-07 $layer=LI1_cond $X=5.51 $Y=2.61
+ $X2=4.865 $Y2=2.61
r125 82 83 0.563077 $w=3.25e-07 $l=1.5e-08 $layer=LI1_cond $X=2.08 $Y=2.035
+ $X2=2.08 $Y2=2.05
r126 81 82 2.62769 $w=3.25e-07 $l=7e-08 $layer=LI1_cond $X=2.08 $Y=1.965
+ $X2=2.08 $Y2=2.035
r127 72 75 29.8782 $w=2.68e-07 $l=7e-07 $layer=LI1_cond $X=8.39 $Y=2.115
+ $X2=8.39 $Y2=2.815
r128 70 75 3.84148 $w=2.68e-07 $l=9e-08 $layer=LI1_cond $X=8.39 $Y=2.905
+ $X2=8.39 $Y2=2.815
r129 69 96 5.90115 $w=1.7e-07 $l=1e-07 $layer=LI1_cond $X=7.575 $Y=2.99
+ $X2=7.475 $Y2=2.99
r130 68 70 7.28469 $w=1.7e-07 $l=1.72337e-07 $layer=LI1_cond $X=8.255 $Y=2.99
+ $X2=8.39 $Y2=2.905
r131 68 69 44.3636 $w=1.68e-07 $l=6.8e-07 $layer=LI1_cond $X=8.255 $Y=2.99
+ $X2=7.575 $Y2=2.99
r132 64 96 0.764409 $w=2e-07 $l=8.5e-08 $layer=LI1_cond $X=7.475 $Y=2.905
+ $X2=7.475 $Y2=2.99
r133 64 66 24.9545 $w=1.98e-07 $l=4.5e-07 $layer=LI1_cond $X=7.475 $Y=2.905
+ $X2=7.475 $Y2=2.455
r134 62 96 5.90115 $w=1.7e-07 $l=1e-07 $layer=LI1_cond $X=7.375 $Y=2.99
+ $X2=7.475 $Y2=2.99
r135 62 63 45.6684 $w=1.68e-07 $l=7e-07 $layer=LI1_cond $X=7.375 $Y=2.99
+ $X2=6.675 $Y2=2.99
r136 61 63 7.76618 $w=1.7e-07 $l=2.03101e-07 $layer=LI1_cond $X=6.51 $Y=2.905
+ $X2=6.675 $Y2=2.99
r137 60 95 2.6405 $w=3.3e-07 $l=8.5e-08 $layer=LI1_cond $X=6.51 $Y=2.46 $X2=6.51
+ $Y2=2.375
r138 60 61 15.5405 $w=3.28e-07 $l=4.45e-07 $layer=LI1_cond $X=6.51 $Y=2.46
+ $X2=6.51 $Y2=2.905
r139 58 95 5.12568 $w=1.7e-07 $l=1.65e-07 $layer=LI1_cond $X=6.345 $Y=2.375
+ $X2=6.51 $Y2=2.375
r140 58 93 43.7112 $w=1.68e-07 $l=6.7e-07 $layer=LI1_cond $X=6.345 $Y=2.375
+ $X2=5.675 $Y2=2.375
r141 57 89 3.80956 $w=1.7e-07 $l=1.65e-07 $layer=LI1_cond $X=4.195 $Y=2.375
+ $X2=4.03 $Y2=2.375
r142 57 92 43.7112 $w=1.68e-07 $l=6.7e-07 $layer=LI1_cond $X=4.195 $Y=2.375
+ $X2=4.865 $Y2=2.375
r143 53 89 2.88756 $w=3.3e-07 $l=8.5e-08 $layer=LI1_cond $X=4.03 $Y=2.29
+ $X2=4.03 $Y2=2.375
r144 52 87 2.6405 $w=3.3e-07 $l=8.5e-08 $layer=LI1_cond $X=4.03 $Y=2.12 $X2=4.03
+ $Y2=2.035
r145 52 53 5.93683 $w=3.28e-07 $l=1.7e-07 $layer=LI1_cond $X=4.03 $Y=2.12
+ $X2=4.03 $Y2=2.29
r146 51 85 8.10876 $w=1.85e-07 $l=1.72337e-07 $layer=LI1_cond $X=3.195 $Y=2.035
+ $X2=3.03 $Y2=2.05
r147 50 87 5.12568 $w=1.7e-07 $l=1.65e-07 $layer=LI1_cond $X=3.865 $Y=2.035
+ $X2=4.03 $Y2=2.035
r148 50 51 43.7112 $w=1.68e-07 $l=6.7e-07 $layer=LI1_cond $X=3.865 $Y=2.035
+ $X2=3.195 $Y2=2.035
r149 46 85 0.63164 $w=3.3e-07 $l=1e-07 $layer=LI1_cond $X=3.03 $Y=2.15 $X2=3.03
+ $Y2=2.05
r150 46 48 23.2235 $w=3.28e-07 $l=6.65e-07 $layer=LI1_cond $X=3.03 $Y=2.15
+ $X2=3.03 $Y2=2.815
r151 45 83 3.57764 $w=2e-07 $l=1.65e-07 $layer=LI1_cond $X=2.245 $Y=2.05
+ $X2=2.08 $Y2=2.05
r152 44 85 8.10876 $w=1.85e-07 $l=1.65e-07 $layer=LI1_cond $X=2.865 $Y=2.05
+ $X2=3.03 $Y2=2.05
r153 44 45 34.3818 $w=1.98e-07 $l=6.2e-07 $layer=LI1_cond $X=2.865 $Y=2.05
+ $X2=2.245 $Y2=2.05
r154 40 83 4.8124 $w=3.25e-07 $l=1e-07 $layer=LI1_cond $X=2.08 $Y=2.15 $X2=2.08
+ $Y2=2.05
r155 40 42 10.7728 $w=2.28e-07 $l=2.15e-07 $layer=LI1_cond $X=2.08 $Y=2.15
+ $X2=2.08 $Y2=2.365
r156 39 79 6.59134 $w=1.7e-07 $l=1.15e-07 $layer=LI1_cond $X=1.295 $Y=2.035
+ $X2=1.18 $Y2=2.035
r157 38 82 4.53325 $w=1.7e-07 $l=1.65e-07 $layer=LI1_cond $X=1.915 $Y=2.035
+ $X2=2.08 $Y2=2.035
r158 38 39 40.4492 $w=1.68e-07 $l=6.2e-07 $layer=LI1_cond $X=1.915 $Y=2.035
+ $X2=1.295 $Y2=2.035
r159 34 79 0.280307 $w=2.3e-07 $l=8.5e-08 $layer=LI1_cond $X=1.18 $Y=2.12
+ $X2=1.18 $Y2=2.035
r160 34 36 14.0297 $w=2.28e-07 $l=2.8e-07 $layer=LI1_cond $X=1.18 $Y=2.12
+ $X2=1.18 $Y2=2.4
r161 33 77 4.57959 $w=1.7e-07 $l=1.4e-07 $layer=LI1_cond $X=0.395 $Y=2.035
+ $X2=0.255 $Y2=2.035
r162 32 79 6.59134 $w=1.7e-07 $l=1.15e-07 $layer=LI1_cond $X=1.065 $Y=2.035
+ $X2=1.18 $Y2=2.035
r163 32 33 43.7112 $w=1.68e-07 $l=6.7e-07 $layer=LI1_cond $X=1.065 $Y=2.035
+ $X2=0.395 $Y2=2.035
r164 28 77 2.78046 $w=2.8e-07 $l=8.5e-08 $layer=LI1_cond $X=0.255 $Y=2.12
+ $X2=0.255 $Y2=2.035
r165 28 30 12.965 $w=2.78e-07 $l=3.15e-07 $layer=LI1_cond $X=0.255 $Y=2.12
+ $X2=0.255 $Y2=2.435
r166 9 75 400 $w=1.7e-07 $l=1.04031e-06 $layer=licon1_PDIFF $count=1 $X=8.225
+ $Y=1.84 $X2=8.36 $Y2=2.815
r167 9 72 400 $w=1.7e-07 $l=3.35783e-07 $layer=licon1_PDIFF $count=1 $X=8.225
+ $Y=1.84 $X2=8.36 $Y2=2.115
r168 8 66 300 $w=1.7e-07 $l=6.79154e-07 $layer=licon1_PDIFF $count=2 $X=7.325
+ $Y=1.84 $X2=7.46 $Y2=2.455
r169 7 95 300 $w=1.7e-07 $l=5.98707e-07 $layer=licon1_PDIFF $count=2 $X=6.375
+ $Y=1.84 $X2=6.51 $Y2=2.375
r170 6 91 150 $w=1.7e-07 $l=8.93308e-07 $layer=licon1_PDIFF $count=4 $X=4.845
+ $Y=1.84 $X2=5.51 $Y2=2.375
r171 5 89 300 $w=1.7e-07 $l=6.86294e-07 $layer=licon1_PDIFF $count=2 $X=3.845
+ $Y=1.84 $X2=4.03 $Y2=2.44
r172 5 87 600 $w=1.7e-07 $l=2.72213e-07 $layer=licon1_PDIFF $count=1 $X=3.845
+ $Y=1.84 $X2=4.03 $Y2=2.035
r173 4 85 400 $w=1.7e-07 $l=2.53673e-07 $layer=licon1_PDIFF $count=1 $X=2.895
+ $Y=1.84 $X2=3.03 $Y2=2.035
r174 4 48 400 $w=1.7e-07 $l=1.04031e-06 $layer=licon1_PDIFF $count=1 $X=2.895
+ $Y=1.84 $X2=3.03 $Y2=2.815
r175 3 81 600 $w=1.7e-07 $l=1.8735e-07 $layer=licon1_PDIFF $count=1 $X=1.945
+ $Y=1.84 $X2=2.08 $Y2=1.965
r176 3 42 300 $w=1.7e-07 $l=5.88643e-07 $layer=licon1_PDIFF $count=2 $X=1.945
+ $Y=1.84 $X2=2.08 $Y2=2.365
r177 2 79 600 $w=1.7e-07 $l=2.53673e-07 $layer=licon1_PDIFF $count=1 $X=1.045
+ $Y=1.84 $X2=1.18 $Y2=2.035
r178 2 36 300 $w=1.7e-07 $l=6.23859e-07 $layer=licon1_PDIFF $count=2 $X=1.045
+ $Y=1.84 $X2=1.18 $Y2=2.4
r179 1 77 600 $w=1.7e-07 $l=2.57488e-07 $layer=licon1_PDIFF $count=1 $X=0.135
+ $Y=1.84 $X2=0.28 $Y2=2.035
r180 1 30 300 $w=1.7e-07 $l=6.63551e-07 $layer=licon1_PDIFF $count=2 $X=0.135
+ $Y=1.84 $X2=0.28 $Y2=2.435
.ends

.subckt PM_SKY130_FD_SC_MS__A31OI_4%VPWR 1 2 3 4 5 6 21 25 29 33 37 41 44 45 46
+ 48 53 62 66 71 81 82 85 88 91 94 97
r111 97 98 9.3 $w=1.7e-07 $l=1.7e-07 $layer=mcon $count=1 $X=6 $Y=3.33 $X2=6
+ $Y2=3.33
r112 94 95 9.3 $w=1.7e-07 $l=1.7e-07 $layer=mcon $count=1 $X=4.56 $Y=3.33
+ $X2=4.56 $Y2=3.33
r113 91 92 9.3 $w=1.7e-07 $l=1.7e-07 $layer=mcon $count=1 $X=3.6 $Y=3.33 $X2=3.6
+ $Y2=3.33
r114 88 89 9.3 $w=1.7e-07 $l=1.7e-07 $layer=mcon $count=1 $X=1.68 $Y=3.33
+ $X2=1.68 $Y2=3.33
r115 85 86 9.3 $w=1.7e-07 $l=1.7e-07 $layer=mcon $count=1 $X=0.72 $Y=3.33
+ $X2=0.72 $Y2=3.33
r116 81 82 3.72 $w=1.7e-07 $l=4.25e-07 $layer=mcon $count=2 $X=8.4 $Y=3.33
+ $X2=8.4 $Y2=3.33
r117 79 82 0.535171 $w=4.9e-07 $l=1.92e-06 $layer=MET1_cond $X=6.48 $Y=3.33
+ $X2=8.4 $Y2=3.33
r118 79 98 0.133793 $w=4.9e-07 $l=4.8e-07 $layer=MET1_cond $X=6.48 $Y=3.33 $X2=6
+ $Y2=3.33
r119 78 81 125.262 $w=1.68e-07 $l=1.92e-06 $layer=LI1_cond $X=6.48 $Y=3.33
+ $X2=8.4 $Y2=3.33
r120 78 79 3.72 $w=1.7e-07 $l=4.25e-07 $layer=mcon $count=2 $X=6.48 $Y=3.33
+ $X2=6.48 $Y2=3.33
r121 76 97 8.61065 $w=1.7e-07 $l=1.65e-07 $layer=LI1_cond $X=6.175 $Y=3.33
+ $X2=6.01 $Y2=3.33
r122 76 78 19.8984 $w=1.68e-07 $l=3.05e-07 $layer=LI1_cond $X=6.175 $Y=3.33
+ $X2=6.48 $Y2=3.33
r123 75 98 0.133793 $w=4.9e-07 $l=4.8e-07 $layer=MET1_cond $X=5.52 $Y=3.33 $X2=6
+ $Y2=3.33
r124 75 95 0.267585 $w=4.9e-07 $l=9.6e-07 $layer=MET1_cond $X=5.52 $Y=3.33
+ $X2=4.56 $Y2=3.33
r125 74 75 4.65 $w=1.7e-07 $l=3.4e-07 $layer=mcon $count=2 $X=5.52 $Y=3.33
+ $X2=5.52 $Y2=3.33
r126 72 94 8.61065 $w=1.7e-07 $l=1.65e-07 $layer=LI1_cond $X=4.695 $Y=3.33
+ $X2=4.53 $Y2=3.33
r127 72 74 53.8235 $w=1.68e-07 $l=8.25e-07 $layer=LI1_cond $X=4.695 $Y=3.33
+ $X2=5.52 $Y2=3.33
r128 71 97 8.61065 $w=1.7e-07 $l=1.65e-07 $layer=LI1_cond $X=5.845 $Y=3.33
+ $X2=6.01 $Y2=3.33
r129 71 74 21.2032 $w=1.68e-07 $l=3.25e-07 $layer=LI1_cond $X=5.845 $Y=3.33
+ $X2=5.52 $Y2=3.33
r130 70 92 0.133793 $w=4.9e-07 $l=4.8e-07 $layer=MET1_cond $X=4.08 $Y=3.33
+ $X2=3.6 $Y2=3.33
r131 69 70 9.3 $w=1.7e-07 $l=1.7e-07 $layer=mcon $count=1 $X=4.08 $Y=3.33
+ $X2=4.08 $Y2=3.33
r132 67 91 8.61065 $w=1.7e-07 $l=1.65e-07 $layer=LI1_cond $X=3.695 $Y=3.33
+ $X2=3.53 $Y2=3.33
r133 67 69 25.1176 $w=1.68e-07 $l=3.85e-07 $layer=LI1_cond $X=3.695 $Y=3.33
+ $X2=4.08 $Y2=3.33
r134 66 94 8.61065 $w=1.7e-07 $l=1.65e-07 $layer=LI1_cond $X=4.365 $Y=3.33
+ $X2=4.53 $Y2=3.33
r135 66 69 18.5936 $w=1.68e-07 $l=2.85e-07 $layer=LI1_cond $X=4.365 $Y=3.33
+ $X2=4.08 $Y2=3.33
r136 65 92 0.133793 $w=4.9e-07 $l=4.8e-07 $layer=MET1_cond $X=3.12 $Y=3.33
+ $X2=3.6 $Y2=3.33
r137 64 65 4.65 $w=1.7e-07 $l=3.4e-07 $layer=mcon $count=2 $X=3.12 $Y=3.33
+ $X2=3.12 $Y2=3.33
r138 62 91 8.61065 $w=1.7e-07 $l=1.65e-07 $layer=LI1_cond $X=3.365 $Y=3.33
+ $X2=3.53 $Y2=3.33
r139 62 64 15.984 $w=1.68e-07 $l=2.45e-07 $layer=LI1_cond $X=3.365 $Y=3.33
+ $X2=3.12 $Y2=3.33
r140 61 65 0.267585 $w=4.9e-07 $l=9.6e-07 $layer=MET1_cond $X=2.16 $Y=3.33
+ $X2=3.12 $Y2=3.33
r141 61 89 0.133793 $w=4.9e-07 $l=4.8e-07 $layer=MET1_cond $X=2.16 $Y=3.33
+ $X2=1.68 $Y2=3.33
r142 60 61 9.3 $w=1.7e-07 $l=1.7e-07 $layer=mcon $count=1 $X=2.16 $Y=3.33
+ $X2=2.16 $Y2=3.33
r143 58 88 8.61065 $w=1.7e-07 $l=1.65e-07 $layer=LI1_cond $X=1.795 $Y=3.33
+ $X2=1.63 $Y2=3.33
r144 58 60 23.8128 $w=1.68e-07 $l=3.65e-07 $layer=LI1_cond $X=1.795 $Y=3.33
+ $X2=2.16 $Y2=3.33
r145 57 89 0.133793 $w=4.9e-07 $l=4.8e-07 $layer=MET1_cond $X=1.2 $Y=3.33
+ $X2=1.68 $Y2=3.33
r146 57 86 0.133793 $w=4.9e-07 $l=4.8e-07 $layer=MET1_cond $X=1.2 $Y=3.33
+ $X2=0.72 $Y2=3.33
r147 56 57 9.3 $w=1.7e-07 $l=1.7e-07 $layer=mcon $count=1 $X=1.2 $Y=3.33 $X2=1.2
+ $Y2=3.33
r148 54 85 8.61065 $w=1.7e-07 $l=1.65e-07 $layer=LI1_cond $X=0.895 $Y=3.33
+ $X2=0.73 $Y2=3.33
r149 54 56 19.8984 $w=1.68e-07 $l=3.05e-07 $layer=LI1_cond $X=0.895 $Y=3.33
+ $X2=1.2 $Y2=3.33
r150 53 88 8.61065 $w=1.7e-07 $l=1.65e-07 $layer=LI1_cond $X=1.465 $Y=3.33
+ $X2=1.63 $Y2=3.33
r151 53 56 17.2888 $w=1.68e-07 $l=2.65e-07 $layer=LI1_cond $X=1.465 $Y=3.33
+ $X2=1.2 $Y2=3.33
r152 51 86 0.133793 $w=4.9e-07 $l=4.8e-07 $layer=MET1_cond $X=0.24 $Y=3.33
+ $X2=0.72 $Y2=3.33
r153 50 51 9.3 $w=1.7e-07 $l=1.7e-07 $layer=mcon $count=1 $X=0.24 $Y=3.33
+ $X2=0.24 $Y2=3.33
r154 48 85 8.61065 $w=1.7e-07 $l=1.65e-07 $layer=LI1_cond $X=0.565 $Y=3.33
+ $X2=0.73 $Y2=3.33
r155 48 50 21.2032 $w=1.68e-07 $l=3.25e-07 $layer=LI1_cond $X=0.565 $Y=3.33
+ $X2=0.24 $Y2=3.33
r156 46 95 0.0668963 $w=4.9e-07 $l=2.4e-07 $layer=MET1_cond $X=4.32 $Y=3.33
+ $X2=4.56 $Y2=3.33
r157 46 70 0.0668963 $w=4.9e-07 $l=2.4e-07 $layer=MET1_cond $X=4.32 $Y=3.33
+ $X2=4.08 $Y2=3.33
r158 44 60 13.3743 $w=1.68e-07 $l=2.05e-07 $layer=LI1_cond $X=2.365 $Y=3.33
+ $X2=2.16 $Y2=3.33
r159 44 45 8.61065 $w=1.7e-07 $l=1.65e-07 $layer=LI1_cond $X=2.365 $Y=3.33
+ $X2=2.53 $Y2=3.33
r160 43 64 27.7273 $w=1.68e-07 $l=4.25e-07 $layer=LI1_cond $X=2.695 $Y=3.33
+ $X2=3.12 $Y2=3.33
r161 43 45 8.61065 $w=1.7e-07 $l=1.65e-07 $layer=LI1_cond $X=2.695 $Y=3.33
+ $X2=2.53 $Y2=3.33
r162 39 97 0.89609 $w=3.3e-07 $l=8.5e-08 $layer=LI1_cond $X=6.01 $Y=3.245
+ $X2=6.01 $Y2=3.33
r163 39 41 16.7628 $w=3.28e-07 $l=4.8e-07 $layer=LI1_cond $X=6.01 $Y=3.245
+ $X2=6.01 $Y2=2.765
r164 35 94 0.89609 $w=3.3e-07 $l=8.5e-08 $layer=LI1_cond $X=4.53 $Y=3.245
+ $X2=4.53 $Y2=3.33
r165 35 37 16.7628 $w=3.28e-07 $l=4.8e-07 $layer=LI1_cond $X=4.53 $Y=3.245
+ $X2=4.53 $Y2=2.765
r166 31 91 0.89609 $w=3.3e-07 $l=8.5e-08 $layer=LI1_cond $X=3.53 $Y=3.245
+ $X2=3.53 $Y2=3.33
r167 31 33 30.3826 $w=3.28e-07 $l=8.7e-07 $layer=LI1_cond $X=3.53 $Y=3.245
+ $X2=3.53 $Y2=2.375
r168 27 45 0.89609 $w=3.3e-07 $l=8.5e-08 $layer=LI1_cond $X=2.53 $Y=3.245
+ $X2=2.53 $Y2=3.33
r169 27 29 29.3349 $w=3.28e-07 $l=8.4e-07 $layer=LI1_cond $X=2.53 $Y=3.245
+ $X2=2.53 $Y2=2.405
r170 23 88 0.89609 $w=3.3e-07 $l=8.5e-08 $layer=LI1_cond $X=1.63 $Y=3.245
+ $X2=1.63 $Y2=3.33
r171 23 25 30.3826 $w=3.28e-07 $l=8.7e-07 $layer=LI1_cond $X=1.63 $Y=3.245
+ $X2=1.63 $Y2=2.375
r172 19 85 0.89609 $w=3.3e-07 $l=8.5e-08 $layer=LI1_cond $X=0.73 $Y=3.245
+ $X2=0.73 $Y2=3.33
r173 19 21 30.3826 $w=3.28e-07 $l=8.7e-07 $layer=LI1_cond $X=0.73 $Y=3.245
+ $X2=0.73 $Y2=2.375
r174 6 41 600 $w=1.7e-07 $l=1.01329e-06 $layer=licon1_PDIFF $count=1 $X=5.825
+ $Y=1.84 $X2=6.01 $Y2=2.765
r175 5 37 600 $w=1.7e-07 $l=1.01329e-06 $layer=licon1_PDIFF $count=1 $X=4.345
+ $Y=1.84 $X2=4.53 $Y2=2.765
r176 4 33 300 $w=1.7e-07 $l=6.20645e-07 $layer=licon1_PDIFF $count=2 $X=3.345
+ $Y=1.84 $X2=3.53 $Y2=2.375
r177 3 29 300 $w=1.7e-07 $l=6.28888e-07 $layer=licon1_PDIFF $count=2 $X=2.395
+ $Y=1.84 $X2=2.53 $Y2=2.405
r178 2 25 300 $w=1.7e-07 $l=5.98707e-07 $layer=licon1_PDIFF $count=2 $X=1.495
+ $Y=1.84 $X2=1.63 $Y2=2.375
r179 1 21 300 $w=1.7e-07 $l=5.98707e-07 $layer=licon1_PDIFF $count=2 $X=0.595
+ $Y=1.84 $X2=0.73 $Y2=2.375
.ends

.subckt PM_SKY130_FD_SC_MS__A31OI_4%Y 1 2 3 4 5 6 19 21 22 25 27 31 33 37 43 45
+ 49 50 52 54 55 56
r114 55 56 17.4042 $w=2.43e-07 $l=3.7e-07 $layer=LI1_cond $X=4.567 $Y=1.295
+ $X2=4.567 $Y2=1.665
r115 48 56 13.406 $w=2.43e-07 $l=2.85e-07 $layer=LI1_cond $X=4.567 $Y=1.95
+ $X2=4.567 $Y2=1.665
r116 45 55 5.40943 $w=2.43e-07 $l=1.15e-07 $layer=LI1_cond $X=4.567 $Y=1.18
+ $X2=4.567 $Y2=1.295
r117 45 47 3.32808 $w=2.45e-07 $l=2.27288e-07 $layer=LI1_cond $X=4.567 $Y=1.18
+ $X2=4.52 $Y2=0.975
r118 41 43 17.2866 $w=3.28e-07 $l=4.95e-07 $layer=LI1_cond $X=8.36 $Y=1.01
+ $X2=8.36 $Y2=0.515
r119 38 52 8.61065 $w=1.7e-07 $l=1.65e-07 $layer=LI1_cond $X=7.175 $Y=2.035
+ $X2=7.01 $Y2=2.035
r120 37 54 5.12568 $w=1.7e-07 $l=1.65e-07 $layer=LI1_cond $X=7.745 $Y=2.035
+ $X2=7.91 $Y2=2.035
r121 37 38 37.1872 $w=1.68e-07 $l=5.7e-07 $layer=LI1_cond $X=7.745 $Y=2.035
+ $X2=7.175 $Y2=2.035
r122 34 50 8.61065 $w=1.7e-07 $l=1.65e-07 $layer=LI1_cond $X=6.84 $Y=1.095
+ $X2=6.675 $Y2=1.095
r123 33 41 7.76618 $w=1.7e-07 $l=2.03101e-07 $layer=LI1_cond $X=8.195 $Y=1.095
+ $X2=8.36 $Y2=1.01
r124 33 34 88.4011 $w=1.68e-07 $l=1.355e-06 $layer=LI1_cond $X=8.195 $Y=1.095
+ $X2=6.84 $Y2=1.095
r125 29 50 0.89609 $w=3.3e-07 $l=8.5e-08 $layer=LI1_cond $X=6.675 $Y=1.01
+ $X2=6.675 $Y2=1.095
r126 29 31 17.2866 $w=3.28e-07 $l=4.95e-07 $layer=LI1_cond $X=6.675 $Y=1.01
+ $X2=6.675 $Y2=0.515
r127 28 49 7.87875 $w=1.92e-07 $l=1.76125e-07 $layer=LI1_cond $X=5.84 $Y=1.095
+ $X2=5.675 $Y2=1.072
r128 27 50 8.61065 $w=1.7e-07 $l=1.65e-07 $layer=LI1_cond $X=6.51 $Y=1.095
+ $X2=6.675 $Y2=1.095
r129 27 28 43.7112 $w=1.68e-07 $l=6.7e-07 $layer=LI1_cond $X=6.51 $Y=1.095
+ $X2=5.84 $Y2=1.095
r130 23 49 0.50483 $w=3.3e-07 $l=1.07e-07 $layer=LI1_cond $X=5.675 $Y=0.965
+ $X2=5.675 $Y2=1.072
r131 23 25 7.15912 $w=3.28e-07 $l=2.05e-07 $layer=LI1_cond $X=5.675 $Y=0.965
+ $X2=5.675 $Y2=0.76
r132 22 48 7.11011 $w=1.7e-07 $l=1.5995e-07 $layer=LI1_cond $X=4.69 $Y=2.035
+ $X2=4.567 $Y2=1.95
r133 21 52 8.61065 $w=1.7e-07 $l=1.65e-07 $layer=LI1_cond $X=6.845 $Y=2.035
+ $X2=7.01 $Y2=2.035
r134 21 22 140.594 $w=1.68e-07 $l=2.155e-06 $layer=LI1_cond $X=6.845 $Y=2.035
+ $X2=4.69 $Y2=2.035
r135 20 47 3.52619 $w=2.15e-07 $l=2.13049e-07 $layer=LI1_cond $X=4.69 $Y=1.072
+ $X2=4.52 $Y2=0.975
r136 19 49 7.87875 $w=1.92e-07 $l=1.65e-07 $layer=LI1_cond $X=5.51 $Y=1.072
+ $X2=5.675 $Y2=1.072
r137 19 20 43.9536 $w=2.13e-07 $l=8.2e-07 $layer=LI1_cond $X=5.51 $Y=1.072
+ $X2=4.69 $Y2=1.072
r138 6 54 300 $w=1.7e-07 $l=2.84605e-07 $layer=licon1_PDIFF $count=2 $X=7.775
+ $Y=1.84 $X2=7.91 $Y2=2.065
r139 5 52 300 $w=1.7e-07 $l=2.92404e-07 $layer=licon1_PDIFF $count=2 $X=6.855
+ $Y=1.84 $X2=7.01 $Y2=2.065
r140 4 43 91 $w=1.7e-07 $l=2.03286e-07 $layer=licon1_NDIFF $count=2 $X=8.22
+ $Y=0.37 $X2=8.36 $Y2=0.515
r141 3 31 91 $w=1.7e-07 $l=2.73038e-07 $layer=licon1_NDIFF $count=2 $X=6.465
+ $Y=0.37 $X2=6.675 $Y2=0.515
r142 2 25 182 $w=1.7e-07 $l=4.54643e-07 $layer=licon1_NDIFF $count=1 $X=5.535
+ $Y=0.37 $X2=5.675 $Y2=0.76
r143 1 47 182 $w=1.7e-07 $l=2.10357e-07 $layer=licon1_NDIFF $count=1 $X=4.37
+ $Y=0.82 $X2=4.52 $Y2=0.965
.ends

.subckt PM_SKY130_FD_SC_MS__A31OI_4%A_30_74# 1 2 3 4 5 18 20 21 24 26 30 32 36
+ 38 42 44 45 46
c77 26 0 1.06564e-19 $X=1.92 $Y=1.095
r78 40 42 8.73063 $w=3.28e-07 $l=2.5e-07 $layer=LI1_cond $X=3.955 $Y=1.01
+ $X2=3.955 $Y2=0.76
r79 39 46 7.94884 $w=1.7e-07 $l=1.48e-07 $layer=LI1_cond $X=3.12 $Y=1.095
+ $X2=2.972 $Y2=1.095
r80 38 40 7.76618 $w=1.7e-07 $l=2.03101e-07 $layer=LI1_cond $X=3.79 $Y=1.095
+ $X2=3.955 $Y2=1.01
r81 38 39 43.7112 $w=1.68e-07 $l=6.7e-07 $layer=LI1_cond $X=3.79 $Y=1.095
+ $X2=3.12 $Y2=1.095
r82 34 46 0.543863 $w=2.95e-07 $l=8.5e-08 $layer=LI1_cond $X=2.972 $Y=1.01
+ $X2=2.972 $Y2=1.095
r83 34 36 9.76647 $w=2.93e-07 $l=2.5e-07 $layer=LI1_cond $X=2.972 $Y=1.01
+ $X2=2.972 $Y2=0.76
r84 33 45 7.02821 $w=1.7e-07 $l=1.25e-07 $layer=LI1_cond $X=2.17 $Y=1.095
+ $X2=2.045 $Y2=1.095
r85 32 46 7.94884 $w=1.7e-07 $l=1.47e-07 $layer=LI1_cond $X=2.825 $Y=1.095
+ $X2=2.972 $Y2=1.095
r86 32 33 42.7326 $w=1.68e-07 $l=6.55e-07 $layer=LI1_cond $X=2.825 $Y=1.095
+ $X2=2.17 $Y2=1.095
r87 28 45 0.00168595 $w=2.5e-07 $l=8.5e-08 $layer=LI1_cond $X=2.045 $Y=1.01
+ $X2=2.045 $Y2=1.095
r88 28 30 23.7403 $w=2.48e-07 $l=5.15e-07 $layer=LI1_cond $X=2.045 $Y=1.01
+ $X2=2.045 $Y2=0.495
r89 27 44 5.16603 $w=1.7e-07 $l=8.5e-08 $layer=LI1_cond $X=1.24 $Y=1.095
+ $X2=1.155 $Y2=1.095
r90 26 45 7.02821 $w=1.7e-07 $l=1.25e-07 $layer=LI1_cond $X=1.92 $Y=1.095
+ $X2=2.045 $Y2=1.095
r91 26 27 44.3636 $w=1.68e-07 $l=6.8e-07 $layer=LI1_cond $X=1.92 $Y=1.095
+ $X2=1.24 $Y2=1.095
r92 22 44 1.34256 $w=1.7e-07 $l=8.5e-08 $layer=LI1_cond $X=1.155 $Y=1.01
+ $X2=1.155 $Y2=1.095
r93 22 24 32.2941 $w=1.68e-07 $l=4.95e-07 $layer=LI1_cond $X=1.155 $Y=1.01
+ $X2=1.155 $Y2=0.515
r94 20 44 5.16603 $w=1.7e-07 $l=8.5e-08 $layer=LI1_cond $X=1.07 $Y=1.095
+ $X2=1.155 $Y2=1.095