* File: sky130_fd_sc_ms__sdfrbp_2.pex.spice
* Created: Wed Sep  2 12:30:19 2020
* Program "Calibre xRC"
* Version "v2018.4_34.26"
* Nominal Temperature: 27C
* Circuit Temperature: 27C
* 
.subckt PM_SKY130_FD_SC_MS__SDFRBP_2%SCE 2 5 7 9 10 12 16 20 23 25 26 28 29 31
+ 32 33 38 48
r88 43 44 96.8533 $w=1.7e-07 $l=2.55e-07 $layer=licon1_POLY $count=1 $X=1.385
+ $Y=1.985 $X2=1.385 $Y2=1.985
r89 38 43 10.6155 $w=3.3e-07 $l=9e-08 $layer=POLY_cond $X=1.37 $Y=1.985 $X2=1.46
+ $Y2=1.985
r90 38 40 116.283 $w=3.3e-07 $l=6.65e-07 $layer=POLY_cond $X=1.37 $Y=1.985
+ $X2=0.705 $Y2=1.985
r91 33 48 2.6405 $w=3.3e-07 $l=8.5e-08 $layer=LI1_cond $X=1.71 $Y=1.985
+ $X2=1.625 $Y2=1.985
r92 33 48 0.523838 $w=3.28e-07 $l=1.5e-08 $layer=LI1_cond $X=1.61 $Y=1.985
+ $X2=1.625 $Y2=1.985
r93 33 44 7.85757 $w=3.28e-07 $l=2.25e-07 $layer=LI1_cond $X=1.61 $Y=1.985
+ $X2=1.385 $Y2=1.985
r94 32 44 6.46067 $w=3.28e-07 $l=1.85e-07 $layer=LI1_cond $X=1.2 $Y=1.985
+ $X2=1.385 $Y2=1.985
r95 31 32 17.2866 $w=3.28e-07 $l=4.95e-07 $layer=LI1_cond $X=0.705 $Y=1.985
+ $X2=1.2 $Y2=1.985
r96 31 40 96.8533 $w=1.7e-07 $l=2.55e-07 $layer=licon1_POLY $count=1 $X=0.705
+ $Y=1.985 $X2=0.705 $Y2=1.985
r97 29 46 46.2115 $w=3.3e-07 $l=1.65e-07 $layer=POLY_cond $X=2.57 $Y=1.455
+ $X2=2.57 $Y2=1.29
r98 28 29 145.28 $w=1.7e-07 $l=1.7e-07 $layer=licon1_POLY $count=1 $X=2.57
+ $Y=1.455 $X2=2.57 $Y2=1.455
r99 26 28 34.3517 $w=2.58e-07 $l=7.75e-07 $layer=LI1_cond $X=1.795 $Y=1.49
+ $X2=2.57 $Y2=1.49
r100 25 33 5.12568 $w=1.7e-07 $l=1.65e-07 $layer=LI1_cond $X=1.71 $Y=1.82
+ $X2=1.71 $Y2=1.985
r101 24 26 7.21222 $w=2.6e-07 $l=1.67183e-07 $layer=LI1_cond $X=1.71 $Y=1.62
+ $X2=1.795 $Y2=1.49
r102 24 25 13.0481 $w=1.68e-07 $l=2e-07 $layer=LI1_cond $X=1.71 $Y=1.62 $X2=1.71
+ $Y2=1.82
r103 22 40 19.2347 $w=3.3e-07 $l=1.1e-07 $layer=POLY_cond $X=0.595 $Y=1.985
+ $X2=0.705 $Y2=1.985
r104 22 23 3.90195 $w=3.3e-07 $l=3.32415e-07 $layer=POLY_cond $X=0.595 $Y=1.985
+ $X2=0.335 $Y2=1.82
r105 18 20 43.5851 $w=1.5e-07 $l=8.5e-08 $layer=POLY_cond $X=0.41 $Y=0.965
+ $X2=0.495 $Y2=0.965
r106 16 46 351.245 $w=1.5e-07 $l=6.85e-07 $layer=POLY_cond $X=2.66 $Y=0.605
+ $X2=2.66 $Y2=1.29
r107 10 43 19.4618 $w=1.8e-07 $l=1.65e-07 $layer=POLY_cond $X=1.46 $Y=2.15
+ $X2=1.46 $Y2=1.985
r108 10 12 190.468 $w=1.8e-07 $l=4.9e-07 $layer=POLY_cond $X=1.46 $Y=2.15
+ $X2=1.46 $Y2=2.64
r109 7 20 2.83073 $w=1.5e-07 $l=7.5e-08 $layer=POLY_cond $X=0.495 $Y=0.89
+ $X2=0.495 $Y2=0.965
r110 7 9 91.58 $w=1.5e-07 $l=2.85e-07 $layer=POLY_cond $X=0.495 $Y=0.89
+ $X2=0.495 $Y2=0.605
r111 3 23 34.7346 $w=1.65e-07 $l=4.06202e-07 $layer=POLY_cond $X=0.505 $Y=2.15
+ $X2=0.335 $Y2=1.82
r112 3 5 190.468 $w=1.8e-07 $l=4.9e-07 $layer=POLY_cond $X=0.505 $Y=2.15
+ $X2=0.505 $Y2=2.64
r113 2 23 34.7346 $w=1.65e-07 $l=7.5e-08 $layer=POLY_cond $X=0.41 $Y=1.82
+ $X2=0.335 $Y2=1.82
r114 1 18 2.83073 $w=1.5e-07 $l=7.5e-08 $layer=POLY_cond $X=0.41 $Y=1.04
+ $X2=0.41 $Y2=0.965
r115 1 2 399.957 $w=1.5e-07 $l=7.8e-07 $layer=POLY_cond $X=0.41 $Y=1.04 $X2=0.41
+ $Y2=1.82
.ends

.subckt PM_SKY130_FD_SC_MS__SDFRBP_2%A_27_79# 1 2 9 13 15 18 21 24 28 31 35 38
+ 39 44
c85 31 0 1.3564e-19 $X=2.275 $Y=2.405
r86 36 44 30.6007 $w=3.3e-07 $l=1.75e-07 $layer=POLY_cond $X=2.44 $Y=1.995
+ $X2=2.615 $Y2=1.995
r87 35 36 145.28 $w=1.7e-07 $l=1.7e-07 $layer=licon1_POLY $count=1 $X=2.44
+ $Y=1.995 $X2=2.44 $Y2=1.995
r88 33 35 11.3498 $w=3.28e-07 $l=3.25e-07 $layer=LI1_cond $X=2.44 $Y=2.32
+ $X2=2.44 $Y2=1.995
r89 32 39 2.76166 $w=1.7e-07 $l=1.65e-07 $layer=LI1_cond $X=0.445 $Y=2.405
+ $X2=0.28 $Y2=2.405
r90 31 33 7.76618 $w=1.7e-07 $l=2.03101e-07 $layer=LI1_cond $X=2.275 $Y=2.405
+ $X2=2.44 $Y2=2.32
r91 31 32 119.39 $w=1.68e-07 $l=1.83e-06 $layer=LI1_cond $X=2.275 $Y=2.405
+ $X2=0.445 $Y2=2.405
r92 28 29 72.64 $w=1.7e-07 $l=3.4e-07 $layer=licon1_POLY $count=2 $X=1.23
+ $Y=1.415 $X2=1.23 $Y2=1.415
r93 26 38 0.221902 $w=3.3e-07 $l=1.25e-07 $layer=LI1_cond $X=0.365 $Y=1.415
+ $X2=0.24 $Y2=1.415
r94 26 28 30.208 $w=3.28e-07 $l=8.65e-07 $layer=LI1_cond $X=0.365 $Y=1.415
+ $X2=1.23 $Y2=1.415
r95 22 39 3.70735 $w=2.5e-07 $l=8.5e-08 $layer=LI1_cond $X=0.28 $Y=2.49 $X2=0.28
+ $Y2=2.405
r96 22 24 5.5876 $w=3.28e-07 $l=1.6e-07 $layer=LI1_cond $X=0.28 $Y=2.49 $X2=0.28
+ $Y2=2.65
r97 21 39 3.70735 $w=2.5e-07 $l=1.18427e-07 $layer=LI1_cond $X=0.2 $Y=2.32
+ $X2=0.28 $Y2=2.405
r98 20 38 7.38875 $w=2.1e-07 $l=1.83916e-07 $layer=LI1_cond $X=0.2 $Y=1.58
+ $X2=0.24 $Y2=1.415
r99 20 21 48.2781 $w=1.68e-07 $l=7.4e-07 $layer=LI1_cond $X=0.2 $Y=1.58 $X2=0.2
+ $Y2=2.32
r100 16 38 7.38875 $w=2.1e-07 $l=1.65e-07 $layer=LI1_cond $X=0.24 $Y=1.25
+ $X2=0.24 $Y2=1.415
r101 16 18 29.733 $w=2.48e-07 $l=6.45e-07 $layer=LI1_cond $X=0.24 $Y=1.25
+ $X2=0.24 $Y2=0.605
r102 15 29 29.7264 $w=3.3e-07 $l=1.7e-07 $layer=POLY_cond $X=1.4 $Y=1.415
+ $X2=1.23 $Y2=1.415
r103 11 44 16.9318 $w=1.8e-07 $l=1.65e-07 $layer=POLY_cond $X=2.615 $Y=2.16
+ $X2=2.615 $Y2=1.995
r104 11 13 223.508 $w=1.8e-07 $l=5.75e-07 $layer=POLY_cond $X=2.615 $Y=2.16
+ $X2=2.615 $Y2=2.735
r105 7 15 32.1775 $w=3.3e-07 $l=1.98997e-07 $layer=POLY_cond $X=1.475 $Y=1.25
+ $X2=1.4 $Y2=1.415
r106 7 9 330.734 $w=1.5e-07 $l=6.45e-07 $layer=POLY_cond $X=1.475 $Y=1.25
+ $X2=1.475 $Y2=0.605
r107 2 24 600 $w=1.7e-07 $l=3.95917e-07 $layer=licon1_PDIFF $count=1 $X=0.135
+ $Y=2.32 $X2=0.28 $Y2=2.65
r108 1 18 182 $w=1.7e-07 $l=2.73038e-07 $layer=licon1_NDIFF $count=1 $X=0.135
+ $Y=0.395 $X2=0.28 $Y2=0.605
.ends

.subckt PM_SKY130_FD_SC_MS__SDFRBP_2%D 3 6 8 11 12 13
r44 11 14 40.6903 $w=3.3e-07 $l=1.65e-07 $layer=POLY_cond $X=1.925 $Y=1.09
+ $X2=1.925 $Y2=1.255
r45 11 13 46.2115 $w=3.3e-07 $l=1.65e-07 $layer=POLY_cond $X=1.925 $Y=1.09
+ $X2=1.925 $Y2=0.925
r46 11 12 145.28 $w=1.7e-07 $l=1.7e-07 $layer=licon1_POLY $count=1 $X=1.925
+ $Y=1.09 $X2=1.925 $Y2=1.09
r47 8 12 7.43022 $w=3.78e-07 $l=2.45e-07 $layer=LI1_cond $X=1.68 $Y=1 $X2=1.925
+ $Y2=1
r48 6 14 538.363 $w=1.8e-07 $l=1.385e-06 $layer=POLY_cond $X=1.88 $Y=2.64
+ $X2=1.88 $Y2=1.255
r49 3 13 102.827 $w=1.5e-07 $l=3.2e-07 $layer=POLY_cond $X=1.865 $Y=0.605
+ $X2=1.865 $Y2=0.925
.ends

.subckt PM_SKY130_FD_SC_MS__SDFRBP_2%SCD 3 7 11 12 13 14 18
c45 13 0 1.32376e-19 $X=3.12 $Y=1.665
c46 3 0 2.55706e-19 $X=3.035 $Y=2.735
r47 13 14 15.0167 $w=3.28e-07 $l=4.3e-07 $layer=LI1_cond $X=3.11 $Y=1.605
+ $X2=3.11 $Y2=2.035
r48 13 18 72.64 $w=1.7e-07 $l=3.4e-07 $layer=licon1_POLY $count=2 $X=3.11
+ $Y=1.605 $X2=3.11 $Y2=1.605
r49 11 18 59.4528 $w=3.3e-07 $l=3.4e-07 $layer=POLY_cond $X=3.11 $Y=1.945
+ $X2=3.11 $Y2=1.605
r50 11 12 40.6903 $w=3.3e-07 $l=1.65e-07 $layer=POLY_cond $X=3.11 $Y=1.945
+ $X2=3.11 $Y2=2.11
r51 10 18 41.8716 $w=3.3e-07 $l=1.65e-07 $layer=POLY_cond $X=3.11 $Y=1.44
+ $X2=3.11 $Y2=1.605
r52 7 10 428.16 $w=1.5e-07 $l=8.35e-07 $layer=POLY_cond $X=3.05 $Y=0.605
+ $X2=3.05 $Y2=1.44
r53 3 12 242.944 $w=1.8e-07 $l=6.25e-07 $layer=POLY_cond $X=3.035 $Y=2.735
+ $X2=3.035 $Y2=2.11
.ends

.subckt PM_SKY130_FD_SC_MS__SDFRBP_2%CLK 1 3 6 10 12 15
c52 10 0 5.22915e-20 $X=4.62 $Y=1.61
r53 15 16 72.64 $w=1.7e-07 $l=3.4e-07 $layer=licon1_POLY $count=2 $X=4.02
+ $Y=1.105 $X2=4.02 $Y2=1.105
r54 12 16 1.31678 $w=5.43e-07 $l=6e-08 $layer=LI1_cond $X=4.08 $Y=1.277 $X2=4.02
+ $Y2=1.277
r55 10 11 5 $w=2.41e-07 $l=2.5e-08 $layer=POLY_cond $X=4.62 $Y=1.61 $X2=4.645
+ $Y2=1.61
r56 9 15 59.4528 $w=3.3e-07 $l=3.4e-07 $layer=POLY_cond $X=4.02 $Y=1.445
+ $X2=4.02 $Y2=1.105
r57 9 10 120 $w=2.41e-07 $l=6e-07 $layer=POLY_cond $X=4.02 $Y=1.61 $X2=4.62
+ $Y2=1.61
r58 4 11 9.67267 $w=1.8e-07 $l=1.65e-07 $layer=POLY_cond $X=4.645 $Y=1.775
+ $X2=4.645 $Y2=1.61
r59 4 6 279.871 $w=1.8e-07 $l=7.2e-07 $layer=POLY_cond $X=4.645 $Y=1.775
+ $X2=4.645 $Y2=2.495
r60 1 10 13.8727 $w=1.5e-07 $l=1.65e-07 $layer=POLY_cond $X=4.62 $Y=1.445
+ $X2=4.62 $Y2=1.61
r61 1 3 154.24 $w=1.5e-07 $l=4.8e-07 $layer=POLY_cond $X=4.62 $Y=1.445 $X2=4.62
+ $Y2=0.965
.ends

.subckt PM_SKY130_FD_SC_MS__SDFRBP_2%A_1025_119# 1 2 9 11 15 17 19 20 21 24 29
+ 31 32 33 36 39 42 43 44 46 51 53 56 63 64 67 69 71 81
c204 71 0 6.65228e-20 $X=6.045 $Y=1.575
c205 64 0 3.17494e-19 $X=9.475 $Y=1.07
c206 63 0 2.9567e-20 $X=9.475 $Y=1.07
c207 53 0 3.30675e-20 $X=5.405 $Y=1.665
c208 51 0 1.19518e-19 $X=5.525 $Y=1.132
c209 39 0 1.50504e-19 $X=8.155 $Y=0.665
c210 31 0 1.9224e-20 $X=5.525 $Y=1.5
c211 15 0 6.36741e-20 $X=6.54 $Y=0.805
r212 68 81 14.8632 $w=3.3e-07 $l=8.5e-08 $layer=POLY_cond $X=9.615 $Y=2.03
+ $X2=9.7 $Y2=2.03
r213 67 69 5.06676 $w=4.43e-07 $l=1.65e-07 $layer=LI1_cond $X=9.532 $Y=2.03
+ $X2=9.532 $Y2=1.865
r214 67 68 145.28 $w=1.7e-07 $l=1.7e-07 $layer=licon1_POLY $count=1 $X=9.615
+ $Y=2.03 $X2=9.615 $Y2=2.03
r215 64 77 15.7375 $w=3.3e-07 $l=9e-08 $layer=POLY_cond $X=9.475 $Y=1.07
+ $X2=9.475 $Y2=1.16
r216 63 64 145.28 $w=1.7e-07 $l=1.7e-07 $layer=licon1_POLY $count=1 $X=9.475
+ $Y=1.07 $X2=9.475 $Y2=1.07
r217 60 63 10.1275 $w=3.28e-07 $l=2.9e-07 $layer=LI1_cond $X=9.185 $Y=1.07
+ $X2=9.475 $Y2=1.07
r218 56 58 17.615 $w=1.68e-07 $l=2.7e-07 $layer=LI1_cond $X=7.085 $Y=0.395
+ $X2=7.085 $Y2=0.665
r219 53 55 17.4006 $w=3.12e-07 $l=4.45e-07 $layer=LI1_cond $X=5.405 $Y=1.665
+ $X2=5.405 $Y2=2.11
r220 47 63 0.716491 $w=3.3e-07 $l=1.65e-07 $layer=LI1_cond $X=9.475 $Y=1.235
+ $X2=9.475 $Y2=1.07
r221 47 69 22.0012 $w=3.28e-07 $l=6.3e-07 $layer=LI1_cond $X=9.475 $Y=1.235
+ $X2=9.475 $Y2=1.865
r222 46 60 4.62375 $w=1.7e-07 $l=1.65e-07 $layer=LI1_cond $X=9.185 $Y=0.905
+ $X2=9.185 $Y2=1.07
r223 45 46 31.3155 $w=1.68e-07 $l=4.8e-07 $layer=LI1_cond $X=9.185 $Y=0.425
+ $X2=9.185 $Y2=0.905
r224 43 45 6.81649 $w=1.7e-07 $l=1.20208e-07 $layer=LI1_cond $X=9.1 $Y=0.34
+ $X2=9.185 $Y2=0.425
r225 43 44 50.5615 $w=1.68e-07 $l=7.75e-07 $layer=LI1_cond $X=9.1 $Y=0.34
+ $X2=8.325 $Y2=0.34
r226 41 44 6.81649 $w=1.7e-07 $l=1.20208e-07 $layer=LI1_cond $X=8.24 $Y=0.425
+ $X2=8.325 $Y2=0.34
r227 41 42 10.1123 $w=1.68e-07 $l=1.55e-07 $layer=LI1_cond $X=8.24 $Y=0.425
+ $X2=8.24 $Y2=0.58
r228 40 58 0.716491 $w=1.7e-07 $l=8.5e-08 $layer=LI1_cond $X=7.17 $Y=0.665
+ $X2=7.085 $Y2=0.665
r229 39 42 6.81649 $w=1.7e-07 $l=1.20208e-07 $layer=LI1_cond $X=8.155 $Y=0.665
+ $X2=8.24 $Y2=0.58
r230 39 40 64.262 $w=1.68e-07 $l=9.85e-07 $layer=LI1_cond $X=8.155 $Y=0.665
+ $X2=7.17 $Y2=0.665
r231 37 74 40.6903 $w=3.3e-07 $l=1.65e-07 $layer=POLY_cond $X=6.045 $Y=1.665
+ $X2=6.045 $Y2=1.83
r232 37 71 15.7375 $w=3.3e-07 $l=9e-08 $layer=POLY_cond $X=6.045 $Y=1.665
+ $X2=6.045 $Y2=1.575
r233 36 37 145.28 $w=1.7e-07 $l=1.7e-07 $layer=licon1_POLY $count=1 $X=6.045
+ $Y=1.665 $X2=6.045 $Y2=1.665
r234 34 53 0.37154 $w=3.3e-07 $l=2.4e-07 $layer=LI1_cond $X=5.645 $Y=1.665
+ $X2=5.405 $Y2=1.665
r235 34 36 13.969 $w=3.28e-07 $l=4e-07 $layer=LI1_cond $X=5.645 $Y=1.665
+ $X2=6.045 $Y2=1.665
r236 32 56 0.716491 $w=1.7e-07 $l=8.5e-08 $layer=LI1_cond $X=7 $Y=0.395
+ $X2=7.085 $Y2=0.395
r237 32 33 102.428 $w=1.68e-07 $l=1.57e-06 $layer=LI1_cond $X=7 $Y=0.395
+ $X2=5.43 $Y2=0.395
r238 31 53 7.13281 $w=3.12e-07 $l=2.16852e-07 $layer=LI1_cond $X=5.525 $Y=1.5
+ $X2=5.405 $Y2=1.665
r239 30 51 1.74499 $w=2.4e-07 $l=1.43e-07 $layer=LI1_cond $X=5.525 $Y=1.275
+ $X2=5.525 $Y2=1.132
r240 30 31 10.8042 $w=2.38e-07 $l=2.25e-07 $layer=LI1_cond $X=5.525 $Y=1.275
+ $X2=5.525 $Y2=1.5
r241 27 51 10.5135 $w=2.83e-07 $l=2.6e-07 $layer=LI1_cond $X=5.265 $Y=1.132
+ $X2=5.525 $Y2=1.132
r242 27 29 8.73063 $w=3.28e-07 $l=2.5e-07 $layer=LI1_cond $X=5.265 $Y=0.99
+ $X2=5.265 $Y2=0.74
r243 26 33 7.76618 $w=1.7e-07 $l=2.03101e-07 $layer=LI1_cond $X=5.265 $Y=0.48
+ $X2=5.43 $Y2=0.395
r244 26 29 9.07985 $w=3.28e-07 $l=2.6e-07 $layer=LI1_cond $X=5.265 $Y=0.48
+ $X2=5.265 $Y2=0.74
r245 22 81 16.9318 $w=1.8e-07 $l=1.65e-07 $layer=POLY_cond $X=9.7 $Y=2.195
+ $X2=9.7 $Y2=2.03
r246 22 24 143.823 $w=1.8e-07 $l=3.7e-07 $layer=POLY_cond $X=9.7 $Y=2.195
+ $X2=9.7 $Y2=2.565
r247 20 77 21.2229 $w=1.5e-07 $l=1.65e-07 $layer=POLY_cond $X=9.31 $Y=1.16
+ $X2=9.475 $Y2=1.16
r248 20 21 184.596 $w=1.5e-07 $l=3.6e-07 $layer=POLY_cond $X=9.31 $Y=1.16
+ $X2=8.95 $Y2=1.16
r249 17 21 26.9307 $w=1.5e-07 $l=1.06066e-07 $layer=POLY_cond $X=8.875 $Y=1.085
+ $X2=8.95 $Y2=1.16
r250 17 19 126.927 $w=1.5e-07 $l=3.95e-07 $layer=POLY_cond $X=8.875 $Y=1.085
+ $X2=8.875 $Y2=0.69
r251 13 15 356.372 $w=1.5e-07 $l=6.95e-07 $layer=POLY_cond $X=6.54 $Y=1.5
+ $X2=6.54 $Y2=0.805
r252 12 71 21.2229 $w=1.5e-07 $l=1.65e-07 $layer=POLY_cond $X=6.21 $Y=1.575
+ $X2=6.045 $Y2=1.575
r253 11 13 26.9307 $w=1.5e-07 $l=1.06066e-07 $layer=POLY_cond $X=6.465 $Y=1.575
+ $X2=6.54 $Y2=1.5
r254 11 12 130.755 $w=1.5e-07 $l=2.55e-07 $layer=POLY_cond $X=6.465 $Y=1.575
+ $X2=6.21 $Y2=1.575
r255 9 74 258.492 $w=1.8e-07 $l=6.65e-07 $layer=POLY_cond $X=6.1 $Y=2.495
+ $X2=6.1 $Y2=1.83
r256 2 55 600 $w=1.7e-07 $l=2.32916e-07 $layer=licon1_PDIFF $count=1 $X=5.185
+ $Y=1.935 $X2=5.32 $Y2=2.11
r257 1 29 91 $w=1.7e-07 $l=2.03286e-07 $layer=licon1_NDIFF $count=2 $X=5.125
+ $Y=0.595 $X2=5.265 $Y2=0.74
.ends

.subckt PM_SKY130_FD_SC_MS__SDFRBP_2%A_1370_290# 1 2 9 13 17 18 21 22 24 32 33
+ 35
c89 33 0 1.87473e-19 $X=8.845 $Y=0.842
c90 21 0 6.53341e-20 $X=7.21 $Y=1.005
c91 13 0 1.56765e-19 $X=6.93 $Y=0.805
r92 36 38 1.74861 $w=3.3e-07 $l=1e-08 $layer=POLY_cond $X=6.93 $Y=1.615 $X2=6.94
+ $Y2=1.615
r93 31 33 4.47019 $w=4.93e-07 $l=1.85e-07 $layer=LI1_cond $X=8.66 $Y=0.842
+ $X2=8.845 $Y2=0.842
r94 31 32 9.48656 $w=4.93e-07 $l=1.65e-07 $layer=LI1_cond $X=8.66 $Y=0.842
+ $X2=8.495 $Y2=0.842
r95 28 33 7.09362 $w=1.7e-07 $l=2.48e-07 $layer=LI1_cond $X=8.845 $Y=1.09
+ $X2=8.845 $Y2=0.842
r96 28 35 42.7326 $w=1.68e-07 $l=6.55e-07 $layer=LI1_cond $X=8.845 $Y=1.09
+ $X2=8.845 $Y2=1.745
r97 24 26 27.0228 $w=2.88e-07 $l=6.8e-07 $layer=LI1_cond $X=8.785 $Y=1.91
+ $X2=8.785 $Y2=2.59
r98 22 35 7.71909 $w=2.88e-07 $l=1.45e-07 $layer=LI1_cond $X=8.785 $Y=1.89
+ $X2=8.785 $Y2=1.745
r99 22 24 0.794788 $w=2.88e-07 $l=2e-08 $layer=LI1_cond $X=8.785 $Y=1.89
+ $X2=8.785 $Y2=1.91
r100 21 32 83.8342 $w=1.68e-07 $l=1.285e-06 $layer=LI1_cond $X=7.21 $Y=1.005
+ $X2=8.495 $Y2=1.005
r101 18 38 28.8521 $w=3.3e-07 $l=1.65e-07 $layer=POLY_cond $X=7.105 $Y=1.615
+ $X2=6.94 $Y2=1.615
r102 17 18 145.28 $w=1.7e-07 $l=1.7e-07 $layer=licon1_POLY $count=1 $X=7.105
+ $Y=1.615 $X2=7.105 $Y2=1.615
r103 15 21 6.91519 $w=1.7e-07 $l=1.41244e-07 $layer=LI1_cond $X=7.105 $Y=1.09
+ $X2=7.21 $Y2=1.005
r104 15 17 27.7273 $w=2.08e-07 $l=5.25e-07 $layer=LI1_cond $X=7.105 $Y=1.09
+ $X2=7.105 $Y2=1.615
r105 11 36 21.2229 $w=1.5e-07 $l=1.65e-07 $layer=POLY_cond $X=6.93 $Y=1.45
+ $X2=6.93 $Y2=1.615
r106 11 13 330.734 $w=1.5e-07 $l=6.45e-07 $layer=POLY_cond $X=6.93 $Y=1.45
+ $X2=6.93 $Y2=0.805
r107 7 38 16.9318 $w=1.8e-07 $l=1.65e-07 $layer=POLY_cond $X=6.94 $Y=1.78
+ $X2=6.94 $Y2=1.615
r108 7 9 277.927 $w=1.8e-07 $l=7.15e-07 $layer=POLY_cond $X=6.94 $Y=1.78
+ $X2=6.94 $Y2=2.495
r109 2 26 400 $w=1.7e-07 $l=9.20027e-07 $layer=licon1_PDIFF $count=1 $X=8.59
+ $Y=1.735 $X2=8.725 $Y2=2.59
r110 2 24 400 $w=1.7e-07 $l=2.32916e-07 $layer=licon1_PDIFF $count=1 $X=8.59
+ $Y=1.735 $X2=8.725 $Y2=1.91
r111 1 31 182 $w=1.7e-07 $l=5.05173e-07 $layer=licon1_NDIFF $count=1 $X=8.52
+ $Y=0.37 $X2=8.66 $Y2=0.81
.ends

.subckt PM_SKY130_FD_SC_MS__SDFRBP_2%RESET_B 4 7 9 10 14 15 16 17 19 21 24 30 33
+ 36 38 39 40 41 49 52 53 56 59 61 63 72
c215 72 0 1.25229e-19 $X=10.8 $Y=2.035
c216 33 0 1.32376e-19 $X=3.585 $Y=1.985
c217 9 0 1.66e-21 $X=7.245 $Y=0.18
c218 7 0 1.3005e-19 $X=3.585 $Y=2.735
r219 61 64 40.6903 $w=3.3e-07 $l=1.65e-07 $layer=POLY_cond $X=10.945 $Y=1.985
+ $X2=10.945 $Y2=2.15
r220 61 63 46.2115 $w=3.3e-07 $l=1.65e-07 $layer=POLY_cond $X=10.945 $Y=1.985
+ $X2=10.945 $Y2=1.82
r221 61 72 145.28 $w=1.7e-07 $l=1.7e-07 $layer=licon1_POLY $count=1 $X=10.945
+ $Y=1.985 $X2=10.945 $Y2=1.985
r222 58 59 145.28 $w=1.7e-07 $l=1.7e-07 $layer=licon1_POLY $count=1 $X=7.825
+ $Y=1.96 $X2=7.825 $Y2=1.96
r223 56 58 15.4929 $w=2.8e-07 $l=9e-08 $layer=POLY_cond $X=7.735 $Y=1.98
+ $X2=7.825 $Y2=1.98
r224 52 53 145.28 $w=1.7e-07 $l=1.7e-07 $layer=licon1_POLY $count=1 $X=3.95
+ $Y=1.985 $X2=3.95 $Y2=1.985
r225 49 72 9.3 $w=1.7e-07 $l=1.7e-07 $layer=mcon $count=1 $X=10.8 $Y=2.035
+ $X2=10.8 $Y2=2.035
r226 47 59 9.3 $w=1.7e-07 $l=1.7e-07 $layer=mcon $count=1 $X=7.92 $Y=2.035
+ $X2=7.92 $Y2=2.035
r227 43 53 9.3 $w=1.7e-07 $l=1.7e-07 $layer=mcon $count=1 $X=4.08 $Y=2.035
+ $X2=4.08 $Y2=2.035
r228 41 47 0.115467 $w=2.3e-07 $l=1.45e-07 $layer=MET1_cond $X=8.065 $Y=2.035
+ $X2=7.92 $Y2=2.035
r229 40 49 0.115467 $w=2.3e-07 $l=1.45e-07 $layer=MET1_cond $X=10.655 $Y=2.035
+ $X2=10.8 $Y2=2.035
r230 40 41 3.20544 $w=1.4e-07 $l=2.59e-06 $layer=MET1_cond $X=10.655 $Y=2.035
+ $X2=8.065 $Y2=2.035
r231 39 43 0.115467 $w=2.3e-07 $l=1.45e-07 $layer=MET1_cond $X=4.225 $Y=2.035
+ $X2=4.08 $Y2=2.035
r232 38 47 0.115467 $w=2.3e-07 $l=1.45e-07 $layer=MET1_cond $X=7.775 $Y=2.035
+ $X2=7.92 $Y2=2.035
r233 38 39 4.39356 $w=1.4e-07 $l=3.55e-06 $layer=MET1_cond $X=7.775 $Y=2.035
+ $X2=4.225 $Y2=2.035
r234 34 36 71.7872 $w=1.5e-07 $l=1.4e-07 $layer=POLY_cond $X=10.715 $Y=1.55
+ $X2=10.855 $Y2=1.55
r235 32 52 48.0869 $w=3.3e-07 $l=2.75e-07 $layer=POLY_cond $X=3.675 $Y=1.985
+ $X2=3.95 $Y2=1.985
r236 32 33 3.90195 $w=3.3e-07 $l=9e-08 $layer=POLY_cond $X=3.675 $Y=1.985
+ $X2=3.585 $Y2=1.985
r237 30 64 161.315 $w=1.8e-07 $l=4.15e-07 $layer=POLY_cond $X=11.005 $Y=2.565
+ $X2=11.005 $Y2=2.15
r238 26 36 2.83073 $w=1.5e-07 $l=7.5e-08 $layer=POLY_cond $X=10.855 $Y=1.625
+ $X2=10.855 $Y2=1.55
r239 26 63 99.9894 $w=1.5e-07 $l=1.95e-07 $layer=POLY_cond $X=10.855 $Y=1.625
+ $X2=10.855 $Y2=1.82
r240 22 34 2.83073 $w=1.5e-07 $l=7.5e-08 $layer=POLY_cond $X=10.715 $Y=1.475
+ $X2=10.715 $Y2=1.55
r241 22 24 458.926 $w=1.5e-07 $l=8.95e-07 $layer=POLY_cond $X=10.715 $Y=1.475
+ $X2=10.715 $Y2=0.58
r242 21 56 17.3521 $w=1.5e-07 $l=1.85e-07 $layer=POLY_cond $X=7.735 $Y=1.795
+ $X2=7.735 $Y2=1.98
r243 20 21 284.585 $w=1.5e-07 $l=5.55e-07 $layer=POLY_cond $X=7.735 $Y=1.24
+ $X2=7.735 $Y2=1.795
r244 17 56 36.15 $w=2.8e-07 $l=2.8801e-07 $layer=POLY_cond $X=7.525 $Y=2.165
+ $X2=7.735 $Y2=1.98
r245 17 19 88.3667 $w=1.8e-07 $l=3.3e-07 $layer=POLY_cond $X=7.525 $Y=2.165
+ $X2=7.525 $Y2=2.495
r246 15 20 26.9307 $w=1.5e-07 $l=1.06066e-07 $layer=POLY_cond $X=7.66 $Y=1.165
+ $X2=7.735 $Y2=1.24
r247 15 16 135.883 $w=1.5e-07 $l=2.65e-07 $layer=POLY_cond $X=7.66 $Y=1.165
+ $X2=7.395 $Y2=1.165
r248 12 16 26.9307 $w=1.5e-07 $l=1.06066e-07 $layer=POLY_cond $X=7.32 $Y=1.09
+ $X2=7.395 $Y2=1.165
r249 12 14 146.138 $w=1.5e-07 $l=2.85e-07 $layer=POLY_cond $X=7.32 $Y=1.09
+ $X2=7.32 $Y2=0.805
r250 11 14 282.021 $w=1.5e-07 $l=5.5e-07 $layer=POLY_cond $X=7.32 $Y=0.255
+ $X2=7.32 $Y2=0.805
r251 9 11 26.9307 $w=1.5e-07 $l=1.06066e-07 $layer=POLY_cond $X=7.245 $Y=0.18
+ $X2=7.32 $Y2=0.255
r252 9 10 1845.96 $w=1.5e-07 $l=3.6e-06 $layer=POLY_cond $X=7.245 $Y=0.18
+ $X2=3.645 $Y2=0.18
r253 5 33 34.7346 $w=1.65e-07 $l=1.65e-07 $layer=POLY_cond $X=3.585 $Y=2.15
+ $X2=3.585 $Y2=1.985
r254 5 7 227.395 $w=1.8e-07 $l=5.85e-07 $layer=POLY_cond $X=3.585 $Y=2.15
+ $X2=3.585 $Y2=2.735
r255 2 33 34.7346 $w=1.65e-07 $l=1.72337e-07 $layer=POLY_cond $X=3.57 $Y=1.82
+ $X2=3.585 $Y2=1.985
r256 2 4 623.011 $w=1.5e-07 $l=1.215e-06 $layer=POLY_cond $X=3.57 $Y=1.82
+ $X2=3.57 $Y2=0.605
r257 1 10 26.9307 $w=1.5e-07 $l=1.06066e-07 $layer=POLY_cond $X=3.57 $Y=0.255
+ $X2=3.645 $Y2=0.18
r258 1 4 179.468 $w=1.5e-07 $l=3.5e-07 $layer=POLY_cond $X=3.57 $Y=0.255
+ $X2=3.57 $Y2=0.605
.ends

.subckt PM_SKY130_FD_SC_MS__SDFRBP_2%A_1223_119# 1 2 3 12 16 18 23 24 25 27 28
+ 30 31
c102 30 0 1.03439e-19 $X=8.425 $Y=1.41
c103 25 0 1.70204e-19 $X=6.83 $Y=2.425
c104 12 0 2.9567e-20 $X=8.445 $Y=0.69
r105 31 41 40.6903 $w=3.3e-07 $l=1.65e-07 $layer=POLY_cond $X=8.425 $Y=1.41
+ $X2=8.425 $Y2=1.575
r106 31 40 46.2115 $w=3.3e-07 $l=1.65e-07 $layer=POLY_cond $X=8.425 $Y=1.41
+ $X2=8.425 $Y2=1.245
r107 30 31 145.28 $w=1.7e-07 $l=1.7e-07 $layer=licon1_POLY $count=1 $X=8.425
+ $Y=1.41 $X2=8.425 $Y2=1.41
r108 28 30 32.0123 $w=3.13e-07 $l=8.75e-07 $layer=LI1_cond $X=7.55 $Y=1.417
+ $X2=8.425 $Y2=1.417
r109 27 38 10.3482 $w=3.36e-07 $l=3.72552e-07 $layer=LI1_cond $X=7.465 $Y=2.32
+ $X2=7.75 $Y2=2.522
r110 26 28 7.64049 $w=3.15e-07 $l=1.95944e-07 $layer=LI1_cond $X=7.465 $Y=1.575
+ $X2=7.55 $Y2=1.417
r111 26 27 48.6043 $w=1.68e-07 $l=7.45e-07 $layer=LI1_cond $X=7.465 $Y=1.575
+ $X2=7.465 $Y2=2.32
r112 24 27 6.05874 $w=3.36e-07 $l=1.41244e-07 $layer=LI1_cond $X=7.38 $Y=2.425
+ $X2=7.465 $Y2=2.32
r113 24 25 35.8824 $w=1.68e-07 $l=5.5e-07 $layer=LI1_cond $X=7.38 $Y=2.425
+ $X2=6.83 $Y2=2.425
r114 23 25 6.00066 $w=3.3e-07 $l=1.20208e-07 $layer=LI1_cond $X=6.745 $Y=2.34
+ $X2=6.83 $Y2=2.425
r115 23 34 15.5273 $w=3.3e-07 $l=5.06991e-07 $layer=LI1_cond $X=6.745 $Y=2.34
+ $X2=6.325 $Y2=2.532
r116 22 23 90.6845 $w=1.68e-07 $l=1.39e-06 $layer=LI1_cond $X=6.745 $Y=0.95
+ $X2=6.745 $Y2=2.34
r117 18 22 7.51767 $w=3e-07 $l=1.8775e-07 $layer=LI1_cond $X=6.66 $Y=0.8
+ $X2=6.745 $Y2=0.95
r118 18 20 12.8689 $w=2.98e-07 $l=3.35e-07 $layer=LI1_cond $X=6.66 $Y=0.8
+ $X2=6.325 $Y2=0.8
r119 16 41 256.548 $w=1.8e-07 $l=6.6e-07 $layer=POLY_cond $X=8.5 $Y=2.235
+ $X2=8.5 $Y2=1.575
r120 12 40 284.585 $w=1.5e-07 $l=5.55e-07 $layer=POLY_cond $X=8.445 $Y=0.69
+ $X2=8.445 $Y2=1.245
r121 3 38 600 $w=1.7e-07 $l=2.94873e-07 $layer=licon1_PDIFF $count=1 $X=7.615
+ $Y=2.285 $X2=7.75 $Y2=2.52
r122 2 34 600 $w=1.7e-07 $l=3.05123e-07 $layer=licon1_PDIFF $count=1 $X=6.19
+ $Y=2.285 $X2=6.325 $Y2=2.53
r123 1 20 182 $w=1.7e-07 $l=2.95212e-07 $layer=licon1_NDIFF $count=1 $X=6.115
+ $Y=0.595 $X2=6.325 $Y2=0.8
.ends

.subckt PM_SKY130_FD_SC_MS__SDFRBP_2%A_852_119# 1 2 9 12 14 17 19 20 21 22 23 24
+ 26 29 31 36 37 38 41 43 44 47 50 52 56 60 61
c173 56 0 6.65228e-20 $X=4.49 $Y=1.717
c174 43 0 5.15375e-20 $X=5.595 $Y=1.52
c175 38 0 1.31172e-19 $X=9.04 $Y=1.55
c176 37 0 1.34905e-19 $X=9.85 $Y=1.55
c177 19 0 1.70204e-19 $X=5.595 $Y=3.075
c178 14 0 1.19518e-19 $X=5.52 $Y=1.52
r179 60 61 30.474 $w=3.3e-07 $l=7.5e-08 $layer=POLY_cond $X=5.14 $Y=1.52
+ $X2=5.14 $Y2=1.445
r180 59 63 40.6903 $w=3.3e-07 $l=1.65e-07 $layer=POLY_cond $X=5.14 $Y=1.61
+ $X2=5.14 $Y2=1.775
r181 59 60 15.7375 $w=3.3e-07 $l=9e-08 $layer=POLY_cond $X=5.14 $Y=1.61 $X2=5.14
+ $Y2=1.52
r182 58 59 145.28 $w=1.7e-07 $l=1.7e-07 $layer=licon1_POLY $count=1 $X=5.14
+ $Y=1.61 $X2=5.14 $Y2=1.61
r183 56 58 17.3904 $w=4.56e-07 $l=6.5e-07 $layer=LI1_cond $X=4.49 $Y=1.717
+ $X2=5.14 $Y2=1.717
r184 55 56 0.802632 $w=4.56e-07 $l=3e-08 $layer=LI1_cond $X=4.46 $Y=1.717
+ $X2=4.49 $Y2=1.717
r185 50 56 6.58228 $w=1.7e-07 $l=2.72e-07 $layer=LI1_cond $X=4.49 $Y=1.445
+ $X2=4.49 $Y2=1.717
r186 49 52 2.99516 $w=1.7e-07 $l=1.62019e-07 $layer=LI1_cond $X=4.49 $Y=0.835
+ $X2=4.405 $Y2=0.71
r187 49 50 39.7968 $w=1.68e-07 $l=6.1e-07 $layer=LI1_cond $X=4.49 $Y=0.835
+ $X2=4.49 $Y2=1.445
r188 45 55 4.25555 $w=2.5e-07 $l=2.73e-07 $layer=LI1_cond $X=4.46 $Y=1.99
+ $X2=4.46 $Y2=1.717
r189 45 47 5.53173 $w=2.48e-07 $l=1.2e-07 $layer=LI1_cond $X=4.46 $Y=1.99
+ $X2=4.46 $Y2=2.11
r190 39 41 458.926 $w=1.5e-07 $l=8.95e-07 $layer=POLY_cond $X=9.925 $Y=1.475
+ $X2=9.925 $Y2=0.58
r191 37 39 26.9307 $w=1.5e-07 $l=1.06066e-07 $layer=POLY_cond $X=9.85 $Y=1.55
+ $X2=9.925 $Y2=1.475
r192 37 38 415.34 $w=1.5e-07 $l=8.1e-07 $layer=POLY_cond $X=9.85 $Y=1.55
+ $X2=9.04 $Y2=1.55
r193 34 36 326.516 $w=1.8e-07 $l=8.4e-07 $layer=POLY_cond $X=8.95 $Y=3.075
+ $X2=8.95 $Y2=2.235
r194 33 38 27.2212 $w=1.5e-07 $l=1.21861e-07 $layer=POLY_cond $X=8.95 $Y=1.625
+ $X2=9.04 $Y2=1.55
r195 33 36 237.113 $w=1.8e-07 $l=6.1e-07 $layer=POLY_cond $X=8.95 $Y=1.625
+ $X2=8.95 $Y2=2.235
r196 32 44 23.6879 $w=1.5e-07 $l=9e-08 $layer=POLY_cond $X=6.64 $Y=3.15 $X2=6.55
+ $Y2=3.15
r197 31 34 27.2212 $w=1.5e-07 $l=1.21861e-07 $layer=POLY_cond $X=8.86 $Y=3.15
+ $X2=8.95 $Y2=3.075
r198 31 32 1138.34 $w=1.5e-07 $l=2.22e-06 $layer=POLY_cond $X=8.86 $Y=3.15
+ $X2=6.64 $Y2=3.15
r199 27 44 2.7459 $w=1.8e-07 $l=7.5e-08 $layer=POLY_cond $X=6.55 $Y=3.075
+ $X2=6.55 $Y2=3.15
r200 27 29 225.452 $w=1.8e-07 $l=5.8e-07 $layer=POLY_cond $X=6.55 $Y=3.075
+ $X2=6.55 $Y2=2.495
r201 24 26 98.0067 $w=1.5e-07 $l=3.05e-07 $layer=POLY_cond $X=6.04 $Y=1.11
+ $X2=6.04 $Y2=0.805
r202 22 44 23.6879 $w=1.5e-07 $l=9e-08 $layer=POLY_cond $X=6.46 $Y=3.15 $X2=6.55
+ $Y2=3.15
r203 22 23 405.085 $w=1.5e-07 $l=7.9e-07 $layer=POLY_cond $X=6.46 $Y=3.15
+ $X2=5.67 $Y2=3.15
r204 20 24 26.9307 $w=1.5e-07 $l=1.06066e-07 $layer=POLY_cond $X=5.965 $Y=1.185
+ $X2=6.04 $Y2=1.11
r205 20 21 151.266 $w=1.5e-07 $l=2.95e-07 $layer=POLY_cond $X=5.965 $Y=1.185
+ $X2=5.67 $Y2=1.185
r206 19 23 26.9307 $w=1.5e-07 $l=1.06066e-07 $layer=POLY_cond $X=5.595 $Y=3.075
+ $X2=5.67 $Y2=3.15
r207 18 43 20.4101 $w=1.5e-07 $l=7.5e-08 $layer=POLY_cond $X=5.595 $Y=1.595
+ $X2=5.595 $Y2=1.52
r208 18 19 758.894 $w=1.5e-07 $l=1.48e-06 $layer=POLY_cond $X=5.595 $Y=1.595
+ $X2=5.595 $Y2=3.075
r209 17 43 20.4101 $w=1.5e-07 $l=7.5e-08 $layer=POLY_cond $X=5.595 $Y=1.445
+ $X2=5.595 $Y2=1.52
r210 16 21 26.9307 $w=1.5e-07 $l=1.06066e-07 $layer=POLY_cond $X=5.595 $Y=1.26
+ $X2=5.67 $Y2=1.185
r211 16 17 94.8617 $w=1.5e-07 $l=1.85e-07 $layer=POLY_cond $X=5.595 $Y=1.26
+ $X2=5.595 $Y2=1.445
r212 15 60 21.2229 $w=1.5e-07 $l=1.65e-07 $layer=POLY_cond $X=5.305 $Y=1.52
+ $X2=5.14 $Y2=1.52
r213 14 43 5.30422 $w=1.5e-07 $l=7.5e-08 $layer=POLY_cond $X=5.52 $Y=1.52
+ $X2=5.595 $Y2=1.52
r214 14 15 110.245 $w=1.5e-07 $l=2.15e-07 $layer=POLY_cond $X=5.52 $Y=1.52
+ $X2=5.305 $Y2=1.52
r215 12 63 279.871 $w=1.8e-07 $l=7.2e-07 $layer=POLY_cond $X=5.095 $Y=2.495
+ $X2=5.095 $Y2=1.775
r216 9 61 154.24 $w=1.5e-07 $l=4.8e-07 $layer=POLY_cond $X=5.05 $Y=0.965
+ $X2=5.05 $Y2=1.445
r217 2 47 600 $w=1.7e-07 $l=2.36643e-07 $layer=licon1_PDIFF $count=1 $X=4.275
+ $Y=1.935 $X2=4.42 $Y2=2.11
r218 1 52 182 $w=1.7e-07 $l=2.15639e-07 $layer=licon1_NDIFF $count=1 $X=4.26
+ $Y=0.595 $X2=4.405 $Y2=0.75
.ends

.subckt PM_SKY130_FD_SC_MS__SDFRBP_2%A_2006_373# 1 2 9 13 18 19 20 21 22 23 26
+ 28 29 31 32
c114 22 0 2.94687e-20 $X=11.065 $Y=2.405
c115 21 0 1.34905e-19 $X=10.545 $Y=1.565
c116 20 0 2.52042e-21 $X=11.69 $Y=1.565
c117 13 0 1.25229e-19 $X=10.285 $Y=0.58
r118 37 39 28.8521 $w=3.3e-07 $l=1.65e-07 $layer=POLY_cond $X=10.12 $Y=2.03
+ $X2=10.285 $Y2=2.03
r119 32 35 5.5876 $w=3.28e-07 $l=1.6e-07 $layer=LI1_cond $X=11.23 $Y=2.405
+ $X2=11.23 $Y2=2.565
r120 30 31 39.4706 $w=1.68e-07 $l=6.05e-07 $layer=LI1_cond $X=11.775 $Y=0.875
+ $X2=11.775 $Y2=1.48
r121 28 30 6.81649 $w=1.7e-07 $l=1.20208e-07 $layer=LI1_cond $X=11.69 $Y=0.79
+ $X2=11.775 $Y2=0.875
r122 28 29 15.3316 $w=1.68e-07 $l=2.35e-07 $layer=LI1_cond $X=11.69 $Y=0.79
+ $X2=11.455 $Y2=0.79
r123 24 29 7.76618 $w=1.7e-07 $l=2.03101e-07 $layer=LI1_cond $X=11.29 $Y=0.705
+ $X2=11.455 $Y2=0.79
r124 24 26 4.36531 $w=3.28e-07 $l=1.25e-07 $layer=LI1_cond $X=11.29 $Y=0.705
+ $X2=11.29 $Y2=0.58
r125 22 32 4.62375 $w=1.7e-07 $l=1.65e-07 $layer=LI1_cond $X=11.065 $Y=2.405
+ $X2=11.23 $Y2=2.405
r126 22 23 33.9251 $w=1.68e-07 $l=5.2e-07 $layer=LI1_cond $X=11.065 $Y=2.405
+ $X2=10.545 $Y2=2.405
r127 20 31 6.81649 $w=1.7e-07 $l=1.20208e-07 $layer=LI1_cond $X=11.69 $Y=1.565
+ $X2=11.775 $Y2=1.48
r128 20 21 74.7005 $w=1.68e-07 $l=1.145e-06 $layer=LI1_cond $X=11.69 $Y=1.565
+ $X2=10.545 $Y2=1.565
r129 19 39 20.9834 $w=3.3e-07 $l=1.2e-07 $layer=POLY_cond $X=10.405 $Y=2.03
+ $X2=10.285 $Y2=2.03
r130 18 19 145.28 $w=1.7e-07 $l=1.7e-07 $layer=licon1_POLY $count=1 $X=10.405
+ $Y=2.03 $X2=10.405 $Y2=2.03
r131 16 23 7.36005 $w=1.7e-07 $l=1.77482e-07 $layer=LI1_cond $X=10.405 $Y=2.32
+ $X2=10.545 $Y2=2.405
r132 16 18 11.936 $w=2.78e-07 $l=2.9e-07 $layer=LI1_cond $X=10.405 $Y=2.32
+ $X2=10.405 $Y2=2.03
r133 15 21 7.36005 $w=1.7e-07 $l=1.77482e-07 $layer=LI1_cond $X=10.405 $Y=1.65
+ $X2=10.545 $Y2=1.565
r134 15 18 15.6403 $w=2.78e-07 $l=3.8e-07 $layer=LI1_cond $X=10.405 $Y=1.65
+ $X2=10.405 $Y2=2.03
r135 11 39 21.2229 $w=1.5e-07 $l=1.65e-07 $layer=POLY_cond $X=10.285 $Y=1.865
+ $X2=10.285 $Y2=2.03
r136 11 13 658.904 $w=1.5e-07 $l=1.285e-06 $layer=POLY_cond $X=10.285 $Y=1.865
+ $X2=10.285 $Y2=0.58
r137 7 37 16.9318 $w=1.8e-07 $l=1.65e-07 $layer=POLY_cond $X=10.12 $Y=2.195
+ $X2=10.12 $Y2=2.03
r138 7 9 143.823 $w=1.8e-07 $l=3.7e-07 $layer=POLY_cond $X=10.12 $Y=2.195
+ $X2=10.12 $Y2=2.565
r139 2 35 600 $w=1.7e-07 $l=2.69165e-07 $layer=licon1_PDIFF $count=1 $X=11.095
+ $Y=2.355 $X2=11.23 $Y2=2.565
r140 1 26 182 $w=1.7e-07 $l=2.71109e-07 $layer=licon1_NDIFF $count=1 $X=11.15
+ $Y=0.37 $X2=11.29 $Y2=0.58
.ends

.subckt PM_SKY130_FD_SC_MS__SDFRBP_2%A_1790_74# 1 2 9 11 13 15 19 23 27 31 33 35
+ 39 47 51 56 58 61 64
c146 58 0 1.02173e-19 $X=10.01 $Y=2.365
c147 56 0 1.57754e-19 $X=10.01 $Y=1.045
c148 27 0 2.52042e-21 $X=12.44 $Y=2.4
c149 19 0 7.64129e-20 $X=11.99 $Y=2.4
c150 13 0 1.05882e-19 $X=11.455 $Y=2.565
r151 61 62 145.28 $w=1.7e-07 $l=1.7e-07 $layer=licon1_POLY $count=1 $X=11.355
+ $Y=1.175 $X2=11.355 $Y2=1.175
r152 59 64 0.195364 $w=2.65e-07 $l=8.5e-08 $layer=LI1_cond $X=10.095 $Y=1.177
+ $X2=10.01 $Y2=1.177
r153 59 61 54.7954 $w=2.63e-07 $l=1.26e-06 $layer=LI1_cond $X=10.095 $Y=1.177
+ $X2=11.355 $Y2=1.177
r154 57 64 7.34436 $w=1.7e-07 $l=1.33e-07 $layer=LI1_cond $X=10.01 $Y=1.31
+ $X2=10.01 $Y2=1.177
r155 57 58 68.8289 $w=1.68e-07 $l=1.055e-06 $layer=LI1_cond $X=10.01 $Y=1.31
+ $X2=10.01 $Y2=2.365
r156 56 64 7.34436 $w=1.7e-07 $l=1.32e-07 $layer=LI1_cond $X=10.01 $Y=1.045
+ $X2=10.01 $Y2=1.177
r157 55 56 20.2246 $w=1.68e-07 $l=3.1e-07 $layer=LI1_cond $X=10.01 $Y=0.735
+ $X2=10.01 $Y2=1.045
r158 51 55 7.76618 $w=3.3e-07 $l=2.03101e-07 $layer=LI1_cond $X=9.925 $Y=0.57
+ $X2=10.01 $Y2=0.735
r159 51 53 9.42908 $w=3.28e-07 $l=2.7e-07 $layer=LI1_cond $X=9.925 $Y=0.57
+ $X2=9.655 $Y2=0.57
r160 47 58 7.76618 $w=3.3e-07 $l=2.03101e-07 $layer=LI1_cond $X=9.925 $Y=2.53
+ $X2=10.01 $Y2=2.365
r161 47 49 19.382 $w=3.28e-07 $l=5.55e-07 $layer=LI1_cond $X=9.925 $Y=2.53
+ $X2=9.37 $Y2=2.53
r162 41 42 13.8758 $w=3.3e-07 $l=9.5e-08 $layer=POLY_cond $X=11.99 $Y=1.422
+ $X2=12.085 $Y2=1.422
r163 37 46 21.2229 $w=1.5e-07 $l=1.67e-07 $layer=POLY_cond $X=12.99 $Y=1.255
+ $X2=12.99 $Y2=1.422
r164 37 39 289.713 $w=1.5e-07 $l=5.65e-07 $layer=POLY_cond $X=12.99 $Y=1.255
+ $X2=12.99 $Y2=0.69
r165 33 46 6.57273 $w=3.3e-07 $l=4.5e-08 $layer=POLY_cond $X=12.945 $Y=1.422
+ $X2=12.99 $Y2=1.422
r166 33 44 62.8061 $w=3.3e-07 $l=4.3e-07 $layer=POLY_cond $X=12.945 $Y=1.422
+ $X2=12.515 $Y2=1.422